Infrared Spectrum: N-3-Aminopropylmorpholine
Formula: C7H16N2O
CAS: 123-00-2
State: gas
Instrument: HP-GC/MS/IRD
Origin: NIST Mass Spectrometry Data Center
1/CM	ABSORBANCE
550	0.0001416
562	0.000108
574	6e-05
586	0.0003504
598	0.00072
610	0.0012864
622	0.0015648
634	0.0012912
646	0.0008472
658	0.000876
670	0.0010776
682	0.0012984
694	0.0015504
706	0.0019872
718	0.0027096
730	0.0039912
742	0.0054696
754	0.0062784
766	0.006588
778	0.0064224
790	0.0051696
802	0.0038952
814	0.0028728
826	0.0022632
838	0.0021
850	0.0028344
862	0.0054144
874	0.0059832
886	0.0034776
898	0.0027144
910	0.0030864
922	0.0028224
934	0.002076
946	0.0019224
958	0.0019728
970	0.0020736
982	0.0021288
994	0.003
1006	0.00462
1018	0.0040248
1030	0.0031824
1042	0.0024864
1054	0.0025128
1066	0.0039
1078	0.0046224
1090	0.0045936
1102	0.00792
1114	0.0171144
1126	0.024
1138	0.0186504
1150	0.0092856
1162	0.0040272
1174	0.0021624
1186	0.0014568
1198	0.0013872
1210	0.0014304
1222	0.0014232
1234	0.001824
1246	0.0026376
1258	0.0036864
1270	0.0046944
1282	0.0048552
1294	0.004656
1306	0.0041424
1318	0.0034176
1330	0.0033624
1342	0.0038448
1354	0.0046872
1366	0.0045024
1378	0.0035136
1390	0.0026928
1402	0.0019968
1414	0.0011592
1426	0.0011808
1438	0.0025368
1450	0.0044424
1462	0.0043392
1474	0.0026376
1486	0.0010728
1498	0.0005568
1510	0.0004488
1522	0.0003456
1534	0.000324
1546	0.0003288
1558	0.0004104
1570	0.0004032
1582	0.0005712
1594	0.0008136
1606	0.001308
1618	0.0019752
1630	0.001848
1642	0.001056
1654	0.0006288
1666	0.0003456
1678	0.0002208
1690	0.000156
1702	0.0001704
1714	0.0001512
1726	0.000132
1738	0.0001248
1750	0.0001056
1762	8.4e-05
1774	9.6e-05
1786	8.88e-05
1798	3.84e-05
1810	5.28e-05
1822	6.72e-05
1834	5.52e-05
1846	7.68e-05
1858	6.96e-05
1870	8.64e-05
1882	6e-05
1894	7.68e-05
1906	7.44e-05
1918	9.84e-05
1930	0.0001272
1942	0.000132
1954	0.000108
1966	0.0001608
1978	0.0002328
1990	0.000204
2002	9.12e-05
2014	3.12e-05
2026	2.16e-05
2038	2.88e-05
2050	3.12e-05
2062	2.88e-05
2074	5.04e-05
2086	3.84e-05
2098	2.4e-05
2110	1.92e-05
2122	3.6e-05
2134	2.16e-05
2146	2.64e-05
2158	1.44e-05
2170	3.84e-05
2182	2.16e-05
2194	4.32e-05
2206	4.08e-05
2218	9.12e-05
2230	8.4e-05
2242	0.0001152
2254	0.0001656
2266	0.0001776
2278	0.0001824
2290	0.0001536
2302	0.0001752
2314	0.0001464
2326	0.0001128
2338	0.0001464
2350	8.16e-05
2362	0.0001488
2374	0.000156
2386	8.64e-05
2398	9.36e-05
2410	0.0001128
2422	9.84e-05
2434	5.52e-05
2446	8.16e-05
2458	0.0001152
2470	0.0001464
2482	0.000192
2494	0.0001608
2506	0.0002064
2518	0.0001704
2530	0.0002016
2542	0.0002232
2554	0.0002712
2566	0.0003576
2578	0.0003648
2590	0.000384
2602	0.0005256
2614	0.0005928
2626	0.0007272
2638	0.0009936
2650	0.00132
2662	0.0016824
2674	0.0020928
2686	0.0025776
2698	0.0026928
2710	0.0028056
2722	0.0032496
2734	0.0039672
2746	0.0048576
2758	0.0062256
2770	0.0075168
2782	0.0092256
2794	0.0134784
2806	0.0186984
2818	0.017508
2830	0.0124368
2842	0.0116736
2854	0.0180024
2866	0.02046
2878	0.0145464
2890	0.01182
2902	0.012864
2914	0.0150792
2926	0.0191736
2938	0.0228168
2950	0.0224136
2962	0.0224832
2974	0.018828
2986	0.0062544
2998	0.0020088
3010	0.0011712
3022	0.000816
3034	0.0006336
3046	0.0004968
3058	0.0004368
3070	0.0003144
3082	0.000264
3094	0.0002904
3106	0.0002448
3118	0.0002352
3130	0.0002256
3142	0.0002016
3154	0.0002136
3166	0.0002112
3178	0.0001824
3190	0.0002352
3202	0.0001776
3214	0.0001728
3226	0.0001872
3238	0.0001824
3250	0.0001608
3262	0.0001752
3274	0.0001464
3286	0.0001704
3298	0.000144
3310	0.0001656
3322	0.0002808
3334	0.0003672
3346	0.0004152
3358	0.000228
3370	0.0002112
3382	0.0001584
3394	0.0001968
3406	0.000336
3418	0.0002232
3430	0.0001944
3442	8.88e-05
3454	9.36e-05
3466	5.04e-05
3478	8.64e-05
3490	0.000108
3502	0.000108
3514	6.48e-05
3526	8.88e-05
3538	3.6e-05
3550	4.32e-05
3562	9.36e-05
3574	0.0001488
3586	0.000144
3598	7.44e-05
3610	0.0001104
3622	7.2e-05
3634	5.04e-05
3646	0.0001104
3658	0.0001032
3670	0.0001008
3682	6.96e-05
3694	7.2e-05
3706	2.4e-05
3718	8.4e-05
3730	8.16e-05
3742	0.0001752
3754	0.000132
3766	0.0001704
3778	0.0001536
3790	0.0001176
3802	0.0002064
3814	0.0001224
3826	0.0001608
3838	0.0001464
