Infrared Spectrum: 1-Phenyltridecane
Formula: C19H32
CAS: 123-02-4
State: gas
Instrument: HP-GC/MS/IRD
Origin: NIST Mass Spectrometry Data Center
1/CM	ABSORBANCE
550	0.000819
562	0.0009919
574	0.0009919
586	0.00091
598	0.0004368
610	0
622	0.0002912
634	0.0003913
646	0.0004277
658	0.0008008
670	0.0016289
682	0.0033397
694	0.008554
706	0.0070889
718	0.005824
730	0.0064155
742	0.0066339
754	0.0036309
766	0.0017199
778	0.0010374
790	0.0007007
802	0.0006552
814	0.000546
826	0.000546
838	0.0005278
850	0.0004277
862	0.0003549
874	0.0003731
886	0.0004914
898	0.0006825
910	0.0006916
922	0.0004823
934	0.0004186
946	0.0003822
958	0.0003185
970	0.0002548
982	0.0002821
994	0.0002912
1006	0.0004186
1018	0.0007098
1030	0.0016744
1042	0.0007371
1054	0.0007553
1066	0.0009373
1078	0.0009009
1090	0.0006825
1102	0.0005369
1114	0.0005187
1126	0.0004277
1138	0.000364
1150	0.0004095
1162	0.0003276
1174	0.0004641
1186	0.0006006
1198	0.0006916
1210	0.0005733
1222	0.0005915
1234	0.0007553
1246	0.0006916
1258	0.0006916
1270	0.0008554
1282	0.0010374
1294	0.0013559
1306	0.0015834
1318	0.0017108
1330	0.0017108
1342	0.0027209
1354	0.0029939
1366	0.0024934
1378	0.0019747
1390	0.0015743
1402	0.001183
1414	0.001274
1426	0.0016653
1438	0.0035035
1450	0.0066521
1462	0.0078624
1474	0.0050232
1486	0.0034489
1498	0.0047684
1510	0.0021112
1522	0.001274
1534	0.0008645
1546	0.0008736
1558	0.0011284
1570	0.0007098
1582	0.0009737
1594	0.0017927
1606	0.0022204
1618	0.0008918
1630	0.0004277
1642	0.0003913
1654	0.0007644
1666	0.0003003
1678	0.0003731
1690	0.0003185
1702	0.0006279
1714	0.0005369
1726	0.000273
1738	0.0005642
1750	0.0006006
1762	0.000364
1774	0.0004823
1786	0.0006279
1798	0.0007098
1810	0.0004004
1822	0.0002912
1834	0.0002184
1846	0.0004459
1858	0.0003458
1870	0.0005096
1882	0.0003458
1894	0.000182
1906	0.0001456
1918	0.0003276
1930	0.0004277
1942	0.0005642
1954	0.0004095
1966	0.0001456
1978	6.37e-05
1990	9.1e-05
2002	7.28e-05
2014	0.0001092
2026	0.0001183
2038	0.0001274
2050	0.0001001
2062	0.0001183
2074	8.19e-05
2086	5.46e-05
2098	4.55e-05
2110	4.55e-05
2122	2.73e-05
2134	5.46e-05
2146	9.1e-05
2158	7.28e-05
2170	6.37e-05
2182	7.28e-05
2194	8.19e-05
2206	6.37e-05
2218	4.55e-05
2230	5.46e-05
2242	3.64e-05
2254	3.64e-05
2266	5.46e-05
2278	0.0001092
2290	0.0001274
2302	0.0002457
2314	0.0003731
2326	0.0005005
2338	0.0005369
2350	0.000364
2362	0.0007189
2374	0.0004277
2386	0.0001547
2398	0.0001092
2410	0.0001001
2422	0.0001092
2434	0.0001274
2446	0.0001274
2458	0.0001092
2470	0.0001183
2482	0.0001456
2494	0.0001092
2506	0.0001638
2518	0.0002002
2530	0.0002548
2542	0.0002366
2554	0.0002457
2566	0.0002912
2578	0.000364
2590	0.0003913
2602	0.0004823
2614	0.0005187
2626	0.000546
2638	0.0006825
2650	0.000728
2662	0.0008008
2674	0.0008918
2686	0.00091
2698	0.0008918
2710	0.0008099
2722	0.0008008
2734	0.0009191
2746	0.0009555
2758	0.0010647
2770	0.0012376
2782	0.0015925
2794	0.002002
2806	0.0025571
2818	0.0035035
2830	0.0051415
2842	0.0090909
2854	0.0234598
2866	0.0342888
2878	0.0221039
2890	0.0183456
2902	0.0238875
2914	0.0402857
2926	0.0767676
2938	0.0836745
2950	0.0421967
2962	0.025571
2974	0.0174083
2986	0.0084539
2998	0.005551
3010	0.0051142
3022	0.0067795
3034	0.0088543
3046	0.0052234
3058	0.005187
3070	0.0076895
3082	0.0049868
3094	0.0034216
3106	0.0022477
3118	0.0013104
3130	0.000728
3142	0.0005824
3154	0.0005369
3166	0.000455
3178	0.0004004
3190	0.000364
3202	0.0002093
3214	0.000273
3226	0.0001183
3238	0.0001547
3250	0.0001456
3262	0.0001183
3274	0.0001729
3286	6.37e-05
3298	6.37e-05
3310	7.28e-05
3322	9.1e-05
3334	8.19e-05
3346	7.28e-05
3358	4.55e-05
3370	8.19e-05
3382	6.37e-05
3394	7.28e-05
3406	9.1e-06
3418	3.64e-05
3430	5.46e-05
3442	0.0001092
3454	4.55e-05
3466	1.82e-05
3478	0.0001183
3490	0
3502	0.0001183
3514	4.55e-05
3526	0.000182
3538	2.73e-05
3550	0.0001092
3562	0.0001547
3574	1.82e-05
3586	0.0003367
3598	0.0001547
3610	0.0003185
3622	0.0002366
3634	0.000182
3646	0.0004277
3658	0.0002184
3670	0.0004004
3682	0.0001001
3694	0.0001274
3706	0.0001911
3718	0.0001547
3730	0.0003185
3742	0.000455
3754	0.0003458
3766	0.0001911
3778	0.0001274
3790	5.46e-05
3802	0.0002275
3814	0.0001547
3826	0.0001638
3838	0.0003731
