Infrared Spectrum: 4-Heptanone
Formula: C7H14O
CAS: 123-19-3
State: gas
Instrument: HP-GC/MS/IRD
Origin: NIST Mass Spectrometry Data Center
1/CM	ABSORBANCE
550	0.0001635
562	0.000201
574	4.5e-05
586	8.85e-05
598	0.0001425
610	0.0002535
622	0.0003105
634	0.000255
646	0.0003
658	0.000111
670	0.000207
682	0.0001215
694	0.000195
706	0.0002655
718	0.000288
730	0.000399
742	0.0004785
754	0.0005355
766	0.0006435
778	0.000684
790	0.000654
802	0.0005925
814	0.0005265
826	0.00048
838	0.000408
850	0.0004155
862	0.000537
874	0.0005235
886	0.0005685
898	0.0005235
910	0.000483
922	0.0003495
934	0.0003015
946	0.000282
958	0.0003045
970	0.000369
982	0.0006045
994	0.001035
1006	0.0015345
1018	0.0019245
1030	0.0018615
1042	0.0014595
1054	0.0012255
1066	0.000981
1078	0.0008415
1090	0.000867
1102	0.00117
1114	0.001737
1126	0.002595
1138	0.0028995
1150	0.002685
1162	0.002607
1174	0.001962
1186	0.001176
1198	0.000852
1210	0.0008715
1222	0.0009285
1234	0.0009375
1246	0.0010155
1258	0.0012735
1270	0.0016035
1282	0.0017265
1294	0.0016785
1306	0.0013815
1318	0.001215
1330	0.0015
1342	0.002304
1354	0.0034155
1366	0.0036465
1378	0.0026145
1390	0.001905
1402	0.0017565
1414	0.0019425
1426	0.002016
1438	0.002055
1450	0.002355
1462	0.0024735
1474	0.0019065
1486	0.001173
1498	0.000744
1510	0.0005115
1522	0.0003825
1534	0.0003
1546	0.000267
1558	0.000261
1570	0.0002205
1582	0.000228
1594	0.000231
1606	0.000252
1618	0.000279
1630	0.0002895
1642	0.0003225
1654	0.0004215
1666	0.0005775
1678	0.0009735
1690	0.001914
1702	0.004401
1714	0.00876
1726	0.0112725
1738	0.0080535
1750	0.003195
1762	0.0011595
1774	0.000582
1786	0.0003585
1798	0.000252
1810	0.000183
1822	0.0001665
1834	0.0001455
1846	0.00012
1858	0.0001095
1870	0.000114
1882	0.000102
1894	8.4e-05
1906	7.65e-05
1918	7.2e-05
1930	5.7e-05
1942	5.85e-05
1954	5.4e-05
1966	4.65e-05
1978	3.15e-05
1990	4.8e-05
2002	3.15e-05
2014	3.9e-05
2026	3.75e-05
2038	4.8e-05
2050	3.6e-05
2062	3.15e-05
2074	2.4e-05
2086	3.6e-05
2098	1.65e-05
2110	4.5e-05
2122	3.15e-05
2134	3.15e-05
2146	2.7e-05
2158	1.8e-05
2170	3e-05
2182	2.25e-05
2194	3.6e-05
2206	4.2e-05
2218	4.35e-05
2230	1.65e-05
2242	7.5e-06
2254	2.1e-05
2266	3.3e-05
2278	2.7e-05
2290	4.05e-05
2302	3.45e-05
2314	3.45e-05
2326	4.95e-05
2338	4.5e-05
2350	4.8e-05
2362	4.5e-05
2374	3.75e-05
2386	4.05e-05
2398	6.9e-05
2410	6.6e-05
2422	3.75e-05
2434	5.1e-05
2446	4.5e-05
2458	4.5e-05
2470	5.25e-05
2482	4.05e-05
2494	7.35e-05
2506	7.05e-05
2518	5.25e-05
2530	8.1e-05
2542	7.35e-05
2554	4.95e-05
2566	7.5e-05
2578	9.75e-05
2590	9.15e-05
2602	9.45e-05
2614	0.00012
2626	0.000123
2638	0.0001305
2650	0.000141
2662	0.000174
2674	0.000201
2686	0.0002295
2698	0.0001905
2710	0.0002295
2722	0.000255
2734	0.000339
2746	0.0003795
2758	0.000396
2770	0.0004305
2782	0.0005115
2794	0.00063
2806	0.00075
2818	0.000924
2830	0.0011145
2842	0.001452
2854	0.0020355
2866	0.003357
2878	0.0058995
2890	0.007287
2902	0.0070935
2914	0.007398
2926	0.008322
2938	0.0104565
2950	0.0118905
2962	0.0137835
2974	0.0145635
2986	0.009504
2998	0.004485
3010	0.0024
3022	0.001485
3034	0.001032
3046	0.0007815
3058	0.0006345
3070	0.000546
3082	0.000486
3094	0.0004725
3106	0.0004395
3118	0.0003645
3130	0.000369
3142	0.000321
3154	0.000297
3166	0.0002865
3178	0.0002295
3190	0.000192
3202	0.0001965
3214	0.0001755
3226	0.000153
3238	0.000129
3250	0.00012
3262	0.000114
3274	0.000114
3286	9.75e-05
3298	0.000132
3310	0.000114
3322	0.0001065
3334	5.55e-05
3346	8.85e-05
3358	9.9e-05
3370	0.000117
3382	0.000135
3394	0.0001365
3406	0.0002025
3418	0.0002625
3430	0.000267
3442	0.0001905
3454	0.00015
3466	7.95e-05
3478	6.9e-05
3490	8.1e-05
3502	1.65e-05
3514	1.95e-05
3526	4.2e-05
3538	1.05e-05
3550	4.95e-05
3562	2.7e-05
3574	2.25e-05
3586	2.25e-05
3598	5.25e-05
3610	1.95e-05
3622	3.3e-05
3634	4.8e-05
3646	4.35e-05
3658	3.15e-05
3670	7.8e-05
3682	3.3e-05
3694	3.9e-05
3706	4.5e-05
3718	6.15e-05
3730	9.45e-05
3742	0.000108
3754	4.5e-05
3766	5.7e-05
3778	5.85e-05
3790	8.85e-05
3802	9e-05
3814	7.2e-05
3826	4.65e-05
3838	4.35e-05
