Infrared Spectrum: 2,6,8-Trimethyl-4-nonanol
Formula: C12H26O
CAS: 123-17-1
State: gas
Instrument: HP-GC/MS/IRD
Origin: NIST Mass Spectrometry Data Center
1/CM	ABSORBANCE
550	0.0001722
562	0.0005125
574	0.0003526
586	0.0004305
598	0.0003567
610	0.000287
622	0.0002747
634	0.0002624
646	0.0002255
658	0.0002378
670	1.64e-05
682	8.61e-05
694	0.0002911
706	0.0001599
718	0.0002214
730	0.0002214
742	0.0001927
754	0.0001517
766	0.0002255
778	0.0002542
790	0.0003731
802	0.0004428
814	0.0005494
826	0.0008774
838	0.0010742
850	0.0009512
862	0.0008364
874	0.0007462
886	0.000656
898	0.000574
910	0.0007093
922	0.0010824
934	0.0011767
946	0.0015375
958	0.0016728
970	0.0018204
982	0.0017466
994	0.0017917
1006	0.0025092
1018	0.0028003
1030	0.0026609
1042	0.0025953
1054	0.0025051
1066	0.0021771
1078	0.0017835
1090	0.001845
1102	0.0020869
1114	0.0022181
1126	0.0024395
1138	0.0030545
1150	0.0031652
1162	0.0029889
1174	0.0023329
1186	0.0016687
1198	0.001681
1210	0.0018081
1222	0.0018122
1234	0.0018163
1246	0.0018819
1258	0.0018532
1270	0.0018696
1282	0.0017753
1294	0.0016072
1306	0.0014637
1318	0.0015375
1330	0.0017958
1342	0.0021607
1354	0.0030504
1366	0.0048257
1378	0.0058999
1390	0.0052849
1402	0.002624
1414	0.0015908
1426	0.0015375
1438	0.0020951
1450	0.0030914
1462	0.0046494
1474	0.0043542
1486	0.0019516
1498	0.0009102
1510	0.0005412
1522	0.0003854
1534	0.0002829
1546	0.0002501
1558	0.0001968
1570	0.0002132
1582	0.000205
1594	0.0001968
1606	0.0001804
1618	0.0001722
1630	0.0001599
1642	0.000164
1654	0.0001353
1666	0.0001271
1678	0.000123
1690	0.0001107
1702	0.000123
1714	9.84e-05
1726	9.84e-05
1738	9.02e-05
1750	7.79e-05
1762	7.38e-05
1774	8.2e-05
1786	7.38e-05
1798	6.15e-05
1810	2.46e-05
1822	6.97e-05
1834	5.74e-05
1846	6.15e-05
1858	6.56e-05
1870	5.74e-05
1882	6.97e-05
1894	7.79e-05
1906	5.33e-05
1918	2.46e-05
1930	2.46e-05
1942	2.05e-05
1954	1.23e-05
1966	4.51e-05
1978	6.56e-05
1990	1.64e-05
2002	2.87e-05
2014	3.28e-05
2026	3.69e-05
2038	5.33e-05
2050	1.64e-05
2062	1.23e-05
2074	1.23e-05
2086	8.2e-06
2098	2.87e-05
2110	2.87e-05
2122	0
2134	5.74e-05
2146	3.69e-05
2158	5.33e-05
2170	5.74e-05
2182	6.56e-05
2194	6.15e-05
2206	4.51e-05
2218	5.33e-05
2230	6.97e-05
2242	3.28e-05
2254	4.51e-05
2266	2.87e-05
2278	8.2e-05
2290	4.92e-05
2302	3.69e-05
2314	8.2e-05
2326	4.51e-05
2338	5.33e-05
2350	6.56e-05
2362	5.33e-05
2374	9.84e-05
2386	0.0001271
2398	0.0001189
2410	0.0001148
2422	0.0001435
2434	9.02e-05
2446	0.0001066
2458	8.61e-05
2470	0.0001066
2482	0.0001025
2494	0.0001025
2506	0.0001271
2518	9.43e-05
2530	0.0001312
2542	0.0001353
2554	0.0001681
2566	0.0002255
2578	0.0002501
2590	0.0002952
2602	0.0003239
2614	0.0003321
2626	0.0003362
2638	0.0003485
2650	0.0003157
2662	0.0003854
2674	0.0004182
2686	0.0004551
2698	0.0004633
2710	0.0005535
2722	0.0007421
2734	0.0008651
2746	0.0007872
2758	0.0007626
2770	0.0008733
2782	0.0009102
2794	0.0011111
2806	0.0014063
2818	0.0019188
2830	0.0028167
2842	0.0046699
2854	0.0062197
2866	0.0082492
2878	0.0140753
2890	0.0147231
2902	0.0177817
2914	0.0228821
2926	0.0249075
2938	0.0239891
2950	0.02419
2962	0.0403317
2974	0.0257972
2986	0.0079745
2998	0.0036449
3010	0.0020295
3022	0.0012792
3034	0.0010086
3046	0.0008282
3058	0.0007052
3070	0.0006929
3082	0.0006765
3094	0.0006478
3106	0.0006027
3118	0.0005207
3130	0.0004838
3142	0.0004592
3154	0.0005125
3166	0.0004838
3178	0.0004838
3190	0.000451
3202	0.000328
3214	0.0003075
3226	0.0001968
3238	0.0001599
3250	0.0001312
3262	0.000123
3274	0.0001476
3286	9.43e-05
3298	0.0001271
3310	9.02e-05
3322	0.0001148
3334	9.84e-05
3346	0.0001435
3358	0.0001353
3370	0.000164
3382	0.0001722
3394	0.0001476
3406	0.0001435
3418	0.000164
3430	0.000164
3442	0.0001558
3454	0.0001558
3466	0.000123
3478	8.61e-05
3490	6.97e-05
3502	6.97e-05
3514	3.28e-05
3526	6.97e-05
3538	7.38e-05
3550	6.97e-05
3562	3.28e-05
3574	6.15e-05
3586	8.61e-05
3598	7.38e-05
3610	0.0001681
3622	0.0004141
3634	0.0005576
3646	0.0011685
3658	0.001107
3670	0.0004633
3682	0.0002501
3694	9.43e-05
3706	6.97e-05
3718	0.0001312
3730	0.0001394
3742	0.0001394
3754	8.2e-05
3766	0.0001271
3778	9.02e-05
3790	9.43e-05
3802	0.0001066
3814	0.0001722
3826	0.0001517
3838	0.000164
