Infrared Spectrum: 2,6,8-Trimethyl-4-nonanone
Formula: C12H24O
CAS: 123-18-2
State: gas
Instrument: HP-GC/MS/IRD
Origin: NIST Mass Spectrometry Data Center
1/CM	ABSORBANCE
550	0.0006027
562	0.0002499
574	0.0001323
586	6.86e-05
598	0.0001911
610	0.0003332
622	0.000441
634	0.0005194
646	0.00049
658	0.0006027
670	0.0007399
682	0.0006468
694	0.0004998
706	0.0003724
718	0.000196
730	0.0001764
742	0.0002058
754	0.0001911
766	0.0002401
778	0.0003038
790	0.0003675
802	0.0004802
814	0.0004851
826	0.0004116
838	0.0004802
850	0.0004753
862	0.0004949
874	0.0005537
886	0.0006615
898	0.000735
910	0.0008428
922	0.0012446
934	0.0011809
946	0.0011221
958	0.0012691
970	0.0013034
982	0.0011564
994	0.000882
1006	0.0011662
1018	0.0022491
1030	0.0030919
1042	0.0034153
1054	0.0034692
1066	0.0029106
1078	0.0022148
1090	0.0016317
1102	0.0014504
1114	0.0017346
1126	0.0025088
1138	0.0038808
1150	0.0052381
1162	0.0060074
1174	0.004312
1186	0.0021217
1198	0.001568
1210	0.0017003
1222	0.0018032
1234	0.0019061
1246	0.0019061
1258	0.0017934
1270	0.0021315
1282	0.0032683
1294	0.0040033
1306	0.003969
1318	0.0033859
1330	0.0040082
1342	0.0055174
1354	0.0080654
1366	0.0092267
1378	0.0073108
1390	0.0060319
1402	0.0037436
1414	0.0033712
1426	0.0029743
1438	0.0030919
1450	0.0041258
1462	0.0060662
1474	0.0058065
1486	0.0027685
1498	0.0013671
1510	0.0008134
1522	0.0005782
1534	0.0004704
1546	0.0004263
1558	0.000392
1570	0.0003479
1582	0.0003381
1594	0.0003871
1606	0.0004165
1618	0.0004557
1630	0.00049
1642	0.0005537
1654	0.0007154
1666	0.0009604
1678	0.001519
1690	0.0026705
1702	0.0060907
1714	0.0141365
1726	0.0160083
1738	0.0062622
1750	0.0020923
1762	0.0009702
1774	0.0006125
1786	0.0004459
1798	0.0003381
1810	0.0002695
1822	0.0002254
1834	0.0001862
1846	0.000196
1858	0.0001617
1870	0.0001372
1882	8.82e-05
1894	0.0001225
1906	0.0001029
1918	7.84e-05
1930	6.86e-05
1942	4.41e-05
1954	7.35e-05
1966	4.9e-05
1978	5.88e-05
1990	1.96e-05
2002	3.43e-05
2014	1.96e-05
2026	5.39e-05
2038	3.43e-05
2050	4.41e-05
2062	3.92e-05
2074	2.45e-05
2086	3.43e-05
2098	0
2110	3.92e-05
2122	4.9e-05
2134	5.88e-05
2146	3.43e-05
2158	2.45e-05
2170	6.37e-05
2182	6.86e-05
2194	6.86e-05
2206	7.84e-05
2218	7.84e-05
2230	7.84e-05
2242	4.9e-05
2254	6.37e-05
2266	5.39e-05
2278	6.37e-05
2290	7.35e-05
2302	8.33e-05
2314	8.82e-05
2326	6.37e-05
2338	7.84e-05
2350	7.84e-05
2362	8.82e-05
2374	0.0001127
2386	0.0001323
2398	0.0001225
2410	0.000147
2422	0.0001127
2434	0.0001127
2446	0.000147
2458	0.0001617
2470	0.0001323
2482	0.0001421
2494	0.0001862
2506	0.0001813
2518	0.0001813
2530	0.0001568
2542	0.0001764
2554	0.0002352
2566	0.000245
2578	0.0002744
2590	0.000343
2602	0.0003577
2614	0.000392
2626	0.0004067
2638	0.0004214
2650	0.0004361
2662	0.0004312
2674	0.0004508
2686	0.0005096
2698	0.0005831
2710	0.0006762
2722	0.0008722
2734	0.0010682
2746	0.0010241
2758	0.0009849
2770	0.0010437
2782	0.0011809
2794	0.0014112
2806	0.0017444
2818	0.0022638
2830	0.0030625
2842	0.0047334
2854	0.0064876
2866	0.0094325
2878	0.0174391
2890	0.0192472
2902	0.0204771
2914	0.0219275
2926	0.0225351
2938	0.0260582
2950	0.0299439
2962	0.0474761
2974	0.0350203
2986	0.0133868
2998	0.005488
3010	0.0028371
3022	0.0018081
3034	0.0013671
3046	0.0011564
3058	0.0010192
3070	0.0009849
3082	0.0009947
3094	0.0009359
3106	0.0008281
3118	0.0008232
3130	0.0008134
3142	0.0007938
3154	0.000735
3166	0.0007497
3178	0.0007742
3190	0.0007154
3202	0.0006223
3214	0.0004851
3226	0.0003724
3238	0.0003087
3250	0.0002842
3262	0.0002597
3274	0.0002205
3286	0.0002793
3298	0.0002401
3310	0.0002548
3322	0.0002695
3334	0.0002744
3346	0.0002646
3358	0.0003136
3370	0.0003087
3382	0.000294
3394	0.000343
3406	0.0003332
3418	0.0004557
3430	0.0004704
3442	0.0003136
3454	0.0002107
3466	0.0001421
3478	0.0001176
3490	0.0001078
3502	8.82e-05
3514	0.0001372
3526	8.82e-05
3538	0.0001029
3550	7.35e-05
3562	8.33e-05
3574	0.0001029
3586	0.0001225
3598	9.31e-05
3610	4.9e-05
3622	7.84e-05
3634	8.33e-05
3646	9.31e-05
3658	0.0001127
3670	0.0001323
3682	9.31e-05
3694	0.0001225
3706	0.0001127
3718	0.000147
3730	0.0001519
3742	0.0001715
3754	0.0001666
3766	0.0002009
3778	0.000147
3790	0.0002254
3802	0.0002058
3814	0.0002352
3826	0.0002548
3838	0.0002352
