Infrared Spectrum: 2-Methylpentanal
Formula: C6H12O
CAS: 123-15-9
State: gas
Instrument: HP-GC/MS/IRD
Origin: NIST Mass Spectrometry Data Center
1/CM	ABSORBANCE
550	3.5e-05
562	0.0002114
574	2.38e-05
586	1.4e-06
598	5.88e-05
610	0.000147
622	0.0001722
634	0.0001512
646	0.0002128
658	0.0002562
670	0.0001554
682	0.0001134
694	9.24e-05
706	0.000168
718	0.000196
730	0.0004564
742	0.0004732
754	0.0005054
766	0.0003318
778	0.0003304
790	0.0004452
802	0.000525
814	0.0005348
826	0.0005306
838	0.0005824
850	0.0005068
862	0.0005656
874	0.0007658
886	0.0008456
898	0.00091
910	0.0011298
922	0.0016058
934	0.0017906
946	0.0013412
958	0.0007952
970	0.000434
982	0.000329
994	0.0003052
1006	0.0003346
1018	0.0003598
1030	0.0003346
1042	0.0003976
1054	0.0003276
1066	0.0002772
1078	0.0002632
1090	0.000329
1102	0.0003948
1114	0.0003822
1126	0.000497
1138	0.0005222
1150	0.0005096
1162	0.0003836
1174	0.0002772
1186	0.0002128
1198	0.0001386
1210	0.0001512
1222	0.0001764
1234	0.0002044
1246	0.0001932
1258	0.0002436
1270	0.0002548
1282	0.0002506
1294	0.0002702
1306	0.0003276
1318	0.0003682
1330	0.0004284
1342	0.0005026
1354	0.0005684
1366	0.0007476
1378	0.0011914
1390	0.0013762
1402	0.0010444
1414	0.0006818
1426	0.0006426
1438	0.0010542
1450	0.0018858
1462	0.0024024
1474	0.001967
1486	0.0010612
1498	0.0004858
1510	0.0002744
1522	0.0001904
1534	0.0001862
1546	0.000168
1558	0.000119
1570	0.0001204
1582	9.38e-05
1594	0.0001582
1606	0.0001526
1618	0.0001848
1630	0.000224
1642	0.0003038
1654	0.0004046
1666	0.0006062
1678	0.0009002
1690	0.001309
1702	0.0019922
1714	0.0039018
1726	0.0087976
1738	0.0136122
1750	0.0125524
1762	0.005992
1774	0.0026488
1786	0.0015218
1798	0.0010416
1810	0.0006916
1822	0.0004564
1834	0.0003094
1846	0.000217
1858	0.0001736
1870	0.0001134
1882	0.0001022
1894	5.74e-05
1906	3.64e-05
1918	4.9e-05
1930	4.9e-05
1942	3.5e-05
1954	5.88e-05
1966	3.64e-05
1978	4.2e-05
1990	4.76e-05
2002	3.5e-05
2014	4.2e-05
2026	2.8e-05
2038	4.34e-05
2050	1.96e-05
2062	2.94e-05
2074	4.48e-05
2086	2.52e-05
2098	3.64e-05
2110	4.06e-05
2122	2.66e-05
2134	2.24e-05
2146	2.94e-05
2158	1.96e-05
2170	1.4e-05
2182	4.34e-05
2194	2.8e-05
2206	3.64e-05
2218	3.22e-05
2230	2.24e-05
2242	2.66e-05
2254	2.94e-05
2266	0
2278	1.26e-05
2290	1.96e-05
2302	1.68e-05
2314	3.78e-05
2326	4.2e-05
2338	3.08e-05
2350	2.94e-05
2362	3.5e-05
2374	3.78e-05
2386	2.38e-05
2398	2.8e-05
2410	6.44e-05
2422	5.6e-05
2434	3.78e-05
2446	5.6e-05
2458	3.22e-05
2470	3.92e-05
2482	3.92e-05
2494	5.6e-05
2506	6.16e-05
2518	6.58e-05
2530	7.56e-05
2542	8.54e-05
2554	0.000112
2566	0.0001484
2578	0.0001946
2590	0.0002226
2602	0.0003346
2614	0.0004732
2626	0.0006258
2638	0.0008442
2650	0.0010906
2662	0.0015666
2674	0.002443
2686	0.0037506
2698	0.0045948
2710	0.0042588
2722	0.0031402
2734	0.0024178
2746	0.0021588
2758	0.0020636
2770	0.0020636
2782	0.0022946
2794	0.0028686
2806	0.0030478
2818	0.0026082
2830	0.0022358
2842	0.0024612
2854	0.003451
2866	0.0049042
2878	0.0064764
2890	0.0064918
2902	0.0059304
2914	0.0067886
2926	0.0088606
2938	0.010402
2950	0.0103894
2962	0.0115766
2974	0.0124278
2986	0.0082586
2998	0.0035084
3010	0.0015456
3022	0.00105
3034	0.0008176
3046	0.0006566
3058	0.0005348
3070	0.0004634
3082	0.0003864
3094	0.000406
3106	0.00035
3118	0.000336
3130	0.0002786
3142	0.0002828
3154	0.0002394
3166	0.0002016
3178	0.0002058
3190	0.0001736
3202	0.000126
3214	0.0001022
3226	8.68e-05
3238	9.24e-05
3250	9.1e-05
3262	6.86e-05
3274	9.1e-05
3286	8.96e-05
3298	0.0001176
3310	0.0001022
3322	8.26e-05
3334	7e-05
3346	7.84e-05
3358	2.52e-05
3370	3.92e-05
3382	0.000112
3394	7.28e-05
3406	0.0001498
3418	0.0001806
3430	0.0001722
3442	0.0002814
3454	0.0003402
3466	0.0002968
3478	0.0002114
3490	0.0001736
3502	0.00014
3514	0.0001316
3526	0.0001302
3538	8.26e-05
3550	7.98e-05
3562	5.46e-05
3574	3.22e-05
3586	7.14e-05
3598	6.16e-05
3610	2.52e-05
3622	7.84e-05
3634	6.16e-05
3646	6.44e-05
3658	5.88e-05
3670	2.1e-05
3682	9.52e-05
3694	6.02e-05
3706	7.7e-05
3718	8.68e-05
3730	6.16e-05
3742	6.72e-05
3754	8.68e-05
3766	0.0001316
3778	8.96e-05
3790	7.98e-05
3802	9.38e-05
3814	0.0001106
3826	6.86e-05
3838	4.48e-05
