Infrared Spectrum: 2-(Ethylthio)nicotinyl chloride
Formula: C8H8ClNOS
CAS: 123116-01-8
State: gas
Origin: EPA-IR VAPOR PHASE LIBRARY
1/CM	ABSORBANCE
549.8	0.004773
559.445	0.005413
569.09	0.006883
578.734	0.005183
588.379	0.003283
598.024	0.002273
607.669	0.001993
617.313	0.001703
626.958	0.003553
636.603	0.003153
646.248	0.002153
655.893	0.002023
665.537	0.002583
675.182	0.004533
684.827	0.007533
694.472	0.005653
704.116	0.001743
713.761	0.001513
723.406	0.001803
733.051	0.001753
742.695	0.002333
752.34	0.006793
761.985	0.010093
771.63	0.004753
781.275	0.002893
790.919	0.002993
800.564	0.003783
810.209	0.002373
819.854	0.0012574
829.498	0.0007362
839.143	0.0012894
848.788	0.0006767
858.433	0.001014
868.078	0.0006205
877.722	0.0008918
887.367	0.0006709
897.012	0.00044025
906.657	0.000757
916.301	0.0008708
925.946	0.0009986
935.591	0.0009031
945.236	0.0011455
954.88	0.0010989
964.525	0.001743
974.17	0.001503
983.815	0.0013553
993.46	0.001483
1003.1	0.001673
1012.75	0.001993
1022.39	0.004933
1032.04	0.009713
1041.68	0.010263
1051.33	0.008083
1060.97	0.009863
1070.62	0.008773
1080.26	0.003903
1089.91	0.004823
1099.55	0.009613
1109.2	0.015093
1118.84	0.015103
1128.49	0.010843
1138.13	0.012823
1147.78	0.008633
1157.42	0.006403
1167.07	0.008553
1176.71	0.014373
1186.36	0.011213
1196	0.004303
1205.64	0.003163
1215.29	0.001583
1224.93	0.002433
1234.58	0.004033
1244.22	0.003243
1253.87	0.003273
1263.51	0.004523
1273.16	0.005023
1282.8	0.005653
1292.45	0.004873
1302.09	0.004803
1311.74	0.004743
1321.38	0.005223
1331.03	0.005073
1340.67	0.005193
1350.32	0.006043
1359.96	0.005633
1369.61	0.005113
1379.25	0.006663
1388.9	0.014213
1398.54	0.021283
1408.18	0.014553
1417.83	0.005823
1427.47	0.003063
1437.12	0.002973
1446.76	0.002683
1456.41	0.002243
1466.05	0.001753
1475.7	0.001393
1485.34	0.0012287
1494.99	0.001272
1504.63	0.0012126
1514.28	0.001433
1523.92	0.001843
1533.57	0.002733
1543.21	0.006313
1552.86	0.009933
1562.5	0.007503
1572.15	0.008883
1581.79	0.009313
1591.44	0.004813
1601.08	0.001963
1610.73	0.0012084
1620.37	0.001146
1630.01	0.0011869
1639.66	0.0008354
1649.3	0.0009505
1658.95	0.0008581
1668.59	0.0009869
1678.24	0.0010893
1687.88	0.0011703
1697.53	0.001473
1707.17	0.002433
1716.82	0.003673
1726.46	0.005643
1736.11	0.009303
1745.75	0.022113
1755.4	0.036233
1765.04	0.026943
1774.69	0.012363
1784.33	0.006903
1793.98	0.004803
1803.62	0.002483
1813.27	0.001553
1822.91	0.0013537
1832.55	0.0010397
1842.2	0.0008769
1851.84	0.0007764
1861.49	0.0007317
1871.13	0.0007504
1880.78	0.0005032
1890.42	0.0007197
1900.07	0.0008928
1909.71	0.0009393
1919.36	0.0009478
1929	0.0006888
1938.65	0.0008155
1948.29	0.0007238
1957.94	0.0006164
1967.58	0.0006908
1977.23	0.000474
1986.87	0.0004754
1996.52	0.0005509
2006.16	0.0005703
2015.81	0.00044508
2025.45	0.000549
2035.1	0.0004887
2044.74	0.00044886
2054.38	0.0002989
2064.03	0.0004679
2073.67	0.0005893
2083.32	0.00055
2092.96	0.000666
2102.61	0.0005493
2112.25	0.00044711
2121.9	0.00049
2131.54	0.0005124
2141.19	0.00045763
2150.83	0.000587
2160.48	0.0005402
2170.12	0.0005555
2179.77	0.000575
2189.41	0.00045773
2199.06	0.0005491
2208.7	0.0004671
2218.35	0.0004986
2227.99	0.0006166
2237.64	0.0005724
2247.28	0.0006595
2256.92	0.0007227
2266.57	0.0005357
2276.21	0.0005388
2285.86	0.0006056
2295.5	0.00044777
2305.15	0.0005253
2314.79	0.000497
2324.44	0.0003381
2334.08	0.0005269
2343.73	0.000265
2353.37	0.0006824
2363.02	0.0005636
2372.66	0.0005583
2382.31	0.0005808
2391.95	0.00044179
2401.6	0.0005434
2411.24	0.0004737
2420.89	0.0006602
2430.53	0.00047121
2440.18	0.00045388
2449.82	0.0005305
2459.47	0.0006279
2469.11	0.00046241
2478.75	0.0005034
2488.4	0.00041375
2498.04	0.00040038
2507.69	0.00043715
2517.33	0.000542
2526.98	0.000493
2536.62	0.0005252
2546.27	0.00042409
2555.91	0.00040672
2565.56	0.00045439
2575.2	0.0003549
2584.85	0.000228
2594.49	0.00044996
2604.14	0.000215
2613.78	0.00044754
2623.43	0.00038843
2633.07	0.0005326
2642.72	0.0003168
2652.36	0.0005071
2662.01	0.0005075
2671.65	0.0007077
2681.29	0.0005263
2690.94	0.0006318
2700.58	0.0005079
2710.23	0.000349
2719.87	0.00036836
2729.52	0.0005768
2739.16	0.000199
2748.81	0.0005759
2758.45	0.0003452
2768.1	0.0005035
2777.74	0.00045781
2787.39	0.0006111
2797.03	0.0005822
2806.68	0.0005218
2816.32	0.0005825
2825.97	0.0007827
2835.61	0.00041046
2845.26	0.000502
2854.9	0.0008732
2864.55	0.0009071
2874.19	0.001773
2883.84	0.002133
2893.48	0.001913
2903.12	0.001703
2912.77	0.001673
2922.41	0.002353
2932.06	0.004663
2941.7	0.005443
2951.35	0.003253
2960.99	0.002793
2970.64	0.003593
2980.28	0.004103
2989.93	0.003383
2999.57	0.002573
3009.22	0.001603
3018.86	0.001403
3028.51	0.0012678
3038.15	0.002153
3047.8	0.003283
3057.44	0.002453
3067.09	0.001513
3076.73	0.0013589
3086.38	0.0009393
3096.02	0.0009732
3105.67	0.0013639
3115.31	0.0011605
3124.95	0.0006879
3134.6	0.0008034
3144.24	0.0007865
3153.89	0.0005767
3163.53	0.0008809
3173.18	0.0006234
3182.82	0.0007365
3192.47	0.0005857
3202.11	0.0007296
3211.76	0.000771
3221.4	0.0005619
3231.05	0.0007267
3240.69	0.000632
3250.34	0.0007329
3259.98	0.0006025
3269.63	0.0005121
3279.27	0.0006306
3288.92	0.0005643
3298.56	0.0005435
3308.21	0.0005494
3317.85	0.0008425
3327.49	0.0007938
3337.14	0.0005469
3346.78	0.0005209
3356.43	0.000585
3366.07	0.0004369
3375.72	0.0006729
3385.36	0.0008618
3395.01	0.0007977
3404.65	0.000802
3414.3	0.0005839
3423.94	0.0003437
3433.59	0.0004757
3443.23	0.0009175
3452.88	0.0009027
3462.52	0.0007782
3472.17	0.0007113
3481.81	0.0008882
3491.46	0.0005973
3501.1	0.0009163
3510.75	0.0007137
3520.39	0.0006589
3530.04	0.0005257
3539.68	0.0005426
3549.32	0.0008307
3558.97	0.003463
3568.61	0.008543
3578.26	0.011523
3587.9	0.007413
3597.55	0.001803
3607.19	0.0009597
3616.84	0.0009477
3626.48	0.0005269
3636.13	0.00045455
3645.77	0.00042558
3655.42	0.00036724
3665.06	0.00047058
3674.71	0.0005121
3684.35	0.00043268
3694	0.00040869
3703.64	0.0004945
3713.29	0.00040526
3722.93	0.0007224
3732.58	0.0005806
3742.22	0.0002771
3751.86	0.0004195
3761.51	0.00039423
3771.15	0.000238
3780.8	0.000272
3790.44	0.00043936
3800.09	0.0006741
3809.73	0.000585
3819.38	0.000182
3829.02	0.0006566
3838.67	0.000624
3848.31	0.0005694
3857.96	0.00018
3867.6	0.00043126
3877.25	0.0002862
3886.89	0.000159
3896.54	0.000218
3906.18	0.00038756
3915.83	0.000188
3925.47	6.4e-05
3935.12	0.00011
3944.76	0.0003105
3954.41	0.0005319
3964.05	0.0003611
3973.69	0.00040543
3983.34	0.000201
3992.98	0.0004731
