Infrared Spectrum: PROPIONIC ACID, 3,3'-THIODI-, DIDODECYL ESTER
Formula: C30H58O4S
CAS: 123-28-4
State: SOLID (PELLET)
Class: COBLENTZ
Sampling: TRANSMISSION
Resolution: 4
Origin: TENNESSEE EASTMAN COMPANY, RESEARCH LABORATORIES
MICROMETERS	TRANSMITTANCE
2.007	0.586
2.04694	0.598
2.08687	0.606
2.12681	0.611
2.16675	0.626
2.20669	0.632
2.24662	0.634
2.28656	0.629
2.3265	0.632
2.36644	0.637
2.40637	0.649
2.44631	0.659
2.48625	0.669
2.52618	0.679
2.56612	0.689
2.60606	0.696
2.646	0.699
2.68593	0.707
2.72587	0.709
2.76581	0.709
2.80575	0.705
2.84568	0.699
2.88562	0.684
2.92556	0.679
2.96549	0.7
3.00543	0.717
3.04537	0.734
3.08531	0.742
3.12524	0.749
3.16518	0.752
3.20512	0.759
3.24506	0.757
3.28499	0.737
3.32493	0.662
3.36487	0.235
3.4048	0.048
3.44474	0.119
3.48468	0.101
3.52462	0.471
3.56455	0.705
3.60449	0.765
3.64443	0.784
3.68437	0.79
3.7243	0.795
3.76424	0.799
3.80418	0.808
3.84411	0.82
3.88405	0.832
3.92399	0.847
3.96393	0.85
4.00386	0.858
4.0438	0.858
4.08374	0.865
4.12368	0.867
4.16361	0.867
4.20355	0.867
4.24349	0.873
4.28342	0.865
4.32336	0.86
4.3633	0.873
4.40324	0.882
4.44317	0.885
4.48311	0.888
4.52305	0.89
4.56299	0.893
4.60292	0.895
4.64286	0.895
4.6828	0.895
4.72273	0.897
4.76267	0.898
4.80261	0.898
4.84255	0.898
4.88248	0.9
4.92242	0.898
4.96236	0.898
5.0023	0.908
5.04223	0.908
5.08217	0.906
5.12211	0.908
5.16204	0.908
5.20198	0.91
5.24192	0.91
5.28186	0.908
5.32179	0.908
5.36173	0.908
5.40167	0.908
5.44161	0.906
5.48154	0.89
5.52148	0.882
5.56142	0.855
5.60135	0.82
5.64129	0.762
5.68123	0.568
5.72117	0.129
5.7611	0.064
5.80104	0.229
5.84098	0.596
5.88091	0.674
5.92085	0.74
5.96079	0.799
6.00073	0.825
6.04066	0.848
6.0806	0.845
6.12054	0.852
6.16048	0.858
6.20041	0.862
6.24035	0.878
6.28029	0.887
6.32022	0.892
6.36016	0.89
6.4001	0.893
6.44004	0.887
6.47997	0.882
6.51991	0.883
6.55985	0.875
6.59979	0.875
6.63972	0.865
6.67966	0.848
6.7196	0.775
6.75953	0.606
6.79947	0.285
6.83941	0.355
6.87935	0.49
6.91928	0.529
6.95922	0.533
6.99916	0.541
7.0391	0.554
7.07903	0.637
7.11897	0.699
7.15891	0.599
7.19884	0.549
7.23878	0.578
7.27872	0.584
7.31866	0.549
7.35859	0.397
7.39853	0.312
7.43847	0.303
7.47841	0.431
7.51834	0.529
7.55828	0.612
7.59822	0.657
7.63815	0.641
7.67809	0.574
7.71803	0.548
7.75797	0.528
7.7979	0.504
7.83784	0.521
7.87778	0.531
7.91772	0.475
7.95765	0.332
7.99759	0.229
8.03753	0.152
8.07746	0.167
8.1174	0.242
8.15734	0.275
8.19728	0.279
8.23721	0.28
8.27715	0.279
8.31709	0.262
8.35703	0.254
8.39696	0.229
8.4369	0.204
8.47684	0.169
8.51677	0.149
8.55671	0.151
8.59665	0.186
8.63659	0.217
8.67652	0.237
8.71646	0.255
8.7564	0.275
8.79634	0.317
8.83627	0.4
8.87621	0.506
8.91615	0.624
8.95608	0.72
8.99602	0.77
9.03596	0.782
9.0759	0.797
9.11583	0.797
9.15577	0.792
9.19571	0.779
9.23565	0.75
9.27558	0.719
9.31552	0.687
9.35546	0.667
9.39539	0.656
9.43533	0.652
9.47527	0.651
9.51521	0.656
9.55514	0.669
9.59508	0.682
9.63502	0.691
9.67496	0.697
9.71489	0.7
9.75483	0.7
9.79477	0.697
9.8347	0.689
9.87464	0.682
9.91458	0.677
9.95452	0.677
9.99445	0.687
10.0344	0.694
10.0743	0.7
10.1143	0.704
10.1542	0.707
10.1941	0.707
10.2341	0.705
10.274	0.705
10.314	0.704
10.3539	0.709
10.3938	0.719
10.4338	0.737
10.4737	0.752
10.5136	0.767
10.5536	0.782
10.5935	0.789
10.6334	0.79
10.6734	0.79
10.7133	0.792
10.7533	0.799
10.7932	0.812
10.8331	0.833
10.8731	0.85
10.913	0.857
10.9529	0.863
10.9929	0.865
11.0328	0.865
11.0728	0.865
11.1127	0.865
11.1526	0.865
11.1926	0.863
11.2325	0.865
11.2724	0.868
11.3124	0.878
11.3523	0.882
11.3923	0.885
11.4322	0.892
11.4721	0.897
11.5121	0.897
11.552	0.897
11.5919	0.897
11.6319	0.898
11.6718	0.897
11.7118	0.893
11.7517	0.892
11.7916	0.89
11.8316	0.892
11.8715	0.893
11.9114	0.898
11.9514	0.901
11.9913	0.903
12.0313	0.905
12.0712	0.908
12.1111	0.908
12.1511	0.91
12.191	0.913
12.2309	0.915
12.2709	0.915
12.3108	0.915
12.3508	0.915
12.3907	0.915
12.4306	0.915
12.4706	0.915
12.5105	0.915
12.5504	0.915
12.5904	0.915
12.6303	0.913
12.6703	0.91
12.7102	0.905
12.7501	0.901
12.7901	0.9
12.83	0.898
12.8699	0.9
12.9099	0.901
12.9498	0.903
12.9897	0.905
13.0297	0.906
13.0696	0.906
13.1096	0.908
13.1495	0.91
13.1894	0.911
13.2294	0.911
13.2693	0.911
13.3092	0.911
13.3492	0.91
13.3891	0.913
13.4291	0.911
13.469	0.91
13.5089	0.901
13.5489	0.893
13.5888	0.883
13.6287	0.867
13.6687	0.85
13.7086	0.825
13.7486	0.794
13.7885	0.775
13.8284	0.77
13.8684	0.792
13.9083	0.833
13.9482	0.87
13.9882	0.9
14.0281	0.92
14.0681	0.943
14.108	0.96
14.1479	0.975
14.1879	0.986
14.2278	0.99
14.2677	0.996
14.3077	1.001
14.3476	1.001
14.3876	1.001
14.4275	1.001
14.4674	1
14.5074	0.998
14.5473	0.998
14.5872	0.998
14.6272	0.998
14.6671	1.001
14.7071	1.001
14.747	1.001
14.7869	1
14.8269	1.003
14.8668	1.001
14.9067	1.001
14.9467	0.998
14.9866	0.993
15.0265	0.99
15.0665	0.988
15.1064	0.986
15.1464	0.983
15.1863	0.983
15.2262	0.978
15.2662	0.975
15.3061	0.966
15.346	0.963
15.386	0.953
15.4259	0.936
15.4659	0.925
15.5058	0.92
15.5457	0.915
15.5857	0.91
15.6256	0.901
15.6655	0.895
15.7055	0.883
15.7454	0.865
15.7854	0.853
15.8253	0.84
15.8652	0.828
15.9052	0.823
15.9451	0.803
15.985	0.799
