Infrared Spectrum: 2,5-Dimethylpyrazine
Formula: C6H8N2
CAS: 123-32-0
State: gas
Instrument: HP-GC/MS/IRD
Origin: NIST Mass Spectrometry Data Center
1/CM	ABSORBANCE
550	0.0001258
562	8.33e-05
574	5.27e-05
586	0.0002227
598	0.0001394
610	0.0001751
622	0.0001496
634	0.0002465
646	0.0001207
658	9.18e-05
670	0.0001054
682	0.0001003
694	7.48e-05
706	0.0001173
718	0.0004386
730	0.0008007
742	0.0007412
754	0.0003434
766	0.0002295
778	0.0002278
790	0.0002023
802	0.0002856
814	0.00034
826	0.0003893
838	0.0003366
850	0.0006443
862	0.0011934
874	0.0017697
886	0.0011339
898	0.0007395
910	0.0004556
922	0.0005848
934	0.0011509
946	0.0022712
958	0.0023681
970	0.0013549
982	0.0007004
994	0.0008262
1006	0.0018989
1018	0.0051833
1030	0.0066555
1042	0.0074035
1054	0.0033915
1066	0.0017578
1078	0.0011169
1090	0.0008024
1102	0.000748
1114	0.0008024
1126	0.000918
1138	0.0018054
1150	0.0035819
1162	0.004131
1174	0.0025279
1186	0.0007327
1198	0.0004539
1210	0.0004743
1222	0.0006749
1234	0.0008211
1246	0.0014586
1258	0.0016864
1270	0.0011543
1282	0.0007837
1294	0.001003
1306	0.0026469
1318	0.0083011
1330	0.0113033
1342	0.0072216
1354	0.0030396
1366	0.0024565
1378	0.0039083
1390	0.0042075
1402	0.0026469
1414	0.002516
1426	0.0025721
1438	0.0025245
1450	0.0032079
1462	0.004981
1474	0.0134555
1486	0.0167399
1498	0.0103751
1510	0.0023783
1522	0.0016813
1534	0.0014331
1546	0.0012733
1558	0.0010132
1570	0.0008075
1582	0.0006885
1594	0.0005865
1606	0.0004845
1618	0.0003825
1630	0.0003417
1642	0.0003111
1654	0.0002533
1666	0.0002261
1678	0.0002006
1690	0.0002074
1702	0.0001666
1714	0.0001615
1726	0.0001411
1738	0.0001258
1750	0.0001224
1762	0.0001819
1774	0.0002822
1786	0.0005083
1798	0.0006188
1810	0.0005372
1822	0.0002958
1834	0.0001326
1846	9.86e-05
1858	0.0001394
1870	0.0001258
1882	0.0001462
1894	0.0001683
1906	0.0001598
1918	0.0001224
1930	0.0001258
1942	0.0001632
1954	0.0002567
1966	0.0002754
1978	0.0002057
1990	0.0001428
2002	0.0001122
2014	9.52e-05
2026	9.01e-05
2038	6.97e-05
2050	4.76e-05
2062	4.93e-05
2074	6.46e-05
2086	0.0001207
2098	0.0001207
2110	0.0001768
2122	0.0001615
2134	6.63e-05
2146	3.23e-05
2158	4.25e-05
2170	3.91e-05
2182	7.99e-05
2194	4.08e-05
2206	3.23e-05
2218	2.04e-05
2230	7.99e-05
2242	7.99e-05
2254	9.52e-05
2266	7.99e-05
2278	4.25e-05
2290	6.29e-05
2302	6.97e-05
2314	0.0001292
2326	0.0001275
2338	0.0001326
2350	9.01e-05
2362	4.42e-05
2374	5.95e-05
2386	7.48e-05
2398	9.52e-05
2410	9.18e-05
2422	6.12e-05
2434	9.35e-05
2446	0.0001156
2458	0.0001156
2470	6.63e-05
2482	0.0001003
2494	5.95e-05
2506	8.16e-05
2518	7.48e-05
2530	9.69e-05
2542	0.0001088
2554	0.000102
2566	5.1e-05
2578	5.44e-05
2590	6.97e-05
2602	0.0001615
2614	0.0001853
2626	0.0001241
2638	0.0001139
2650	0.0001088
2662	0.0001037
2674	9.69e-05
2686	9.35e-05
2698	9.35e-05
2710	9.69e-05
2722	0.0001547
2734	0.0002788
2746	0.0003672
2758	0.0002499
2770	0.0002023
2782	0.0001955
2794	0.0002074
2806	0.0002448
2818	0.0003485
2830	0.0005423
2842	0.0008126
2854	0.0012954
2866	0.001785
2878	0.0020383
2890	0.0021845
2902	0.0022865
2914	0.0028322
2926	0.0051799
2938	0.0067932
2950	0.0054145
2962	0.0032198
2974	0.003502
2986	0.0044302
2998	0.007021
3010	0.0079288
3022	0.0061132
3034	0.0034272
3046	0.0029274
3058	0.0033082
3070	0.0040715
3082	0.0034323
3094	0.001802
3106	0.0007514
3118	0.000391
3130	0.0003111
3142	0.0002023
3154	0.0001632
3166	0.000102
3178	8.5e-05
3190	0.0001292
3202	9.18e-05
3214	0.0001088
3226	7.65e-05
3238	9.52e-05
3250	7.99e-05
3262	8.16e-05
3274	4.25e-05
3286	8.67e-05
3298	5.61e-05
3310	7.48e-05
3322	7.48e-05
3334	0.000102
3346	6.12e-05
3358	6.97e-05
3370	0.0001054
3382	8.67e-05
3394	7.82e-05
3406	9.52e-05
3418	0.000119
3430	3.4e-05
3442	9.01e-05
3454	9.52e-05
3466	4.76e-05
3478	0.000102
3490	4.25e-05
3502	7.82e-05
3514	5.95e-05
3526	5.78e-05
3538	3.4e-05
3550	3.06e-05
3562	5.44e-05
3574	4.93e-05
3586	4.59e-05
3598	1.02e-05
3610	6.29e-05
3622	2.04e-05
3634	1.19e-05
3646	2.21e-05
3658	4.93e-05
3670	4.08e-05
3682	4.08e-05
3694	7.65e-05
3706	4.76e-05
3718	5.78e-05
3730	6.8e-05
3742	3.91e-05
3754	4.76e-05
3766	6.12e-05
3778	7.31e-05
3790	1.53e-05
3802	2.55e-05
3814	6.8e-05
3826	8.33e-05
3838	3.57e-05
