Infrared Spectrum: Myrcene
Formula: C10H16
CAS: 123-35-3
State: gas
Instrument: HP-GC/MS/IRD
Origin: NIST Mass Spectrometry Data Center
1/CM	ABSORBANCE
550	0.0002334
562	0.0001254
574	0.0002133
586	0.0001566
598	6.09e-05
610	4.65e-05
622	0.0001092
634	2.49e-05
646	4.26e-05
658	4.98e-05
670	9.39e-05
682	3.12e-05
694	2.85e-05
706	7.32e-05
718	1.32e-05
730	8.52e-05
742	6.12e-05
754	7.89e-05
766	8.19e-05
778	9.6e-05
790	0.000123
802	0.0001929
814	0.0002766
826	0.0002193
838	0.000309
850	0.0002193
862	0.0002748
874	0.000468
886	0.0013797
898	0.0022413
910	0.0016977
922	0.0008013
934	0.0003777
946	0.0002298
958	0.0002832
970	0.0003741
982	0.0006474
994	0.0006732
1006	0.0003492
1018	0.0002016
1030	0.0002103
1042	0.0001908
1054	0.0002034
1066	0.0002163
1078	0.000234
1090	0.0002379
1102	0.0003792
1114	0.0003099
1126	0.0001221
1138	9.9e-05
1150	0.0001035
1162	5.22e-05
1174	8.52e-05
1186	5.88e-05
1198	7.59e-05
1210	0.0001089
1222	9.6e-05
1234	6.63e-05
1246	9.33e-05
1258	8.43e-05
1270	7.17e-05
1282	9.57e-05
1294	0.0001335
1306	0.0001347
1318	0.0001272
1330	0.0001422
1342	0.0001506
1354	0.0002538
1366	0.0003333
1378	0.0005541
1390	0.0005175
1402	0.0003924
1414	0.0004104
1426	0.0005367
1438	0.000624
1450	0.0006633
1462	0.0005466
1474	0.0003396
1486	0.0002031
1498	0.000159
1510	5.97e-05
1522	7.2e-05
1534	0.0001296
1546	0.0001251
1558	0.0001533
1570	0.0003405
1582	0.0005466
1594	0.0007671
1606	0.0005961
1618	0.0003846
1630	0.0004029
1642	0.0002814
1654	0.0001278
1666	0.0001311
1678	8.25e-05
1690	3.84e-05
1702	3.3e-06
1714	1.92e-05
1726	3.27e-05
1738	4.8e-06
1750	0
1762	4.17e-05
1774	6.33e-05
1786	0.0001482
1798	0.0002079
1810	0.0002091
1822	0.0001752
1834	0.0001248
1846	6.45e-05
1858	4.59e-05
1870	3.12e-05
1882	4.53e-05
1894	4.71e-05
1906	3.18e-05
1918	3.21e-05
1930	2.88e-05
1942	3.57e-05
1954	3.27e-05
1966	4.32e-05
1978	5.55e-05
1990	3.69e-05
2002	4.23e-05
2014	3.69e-05
2026	2.76e-05
2038	3.6e-05
2050	2.7e-05
2062	2.82e-05
2074	5.28e-05
2086	2.04e-05
2098	1.83e-05
2110	5.76e-05
2122	2.88e-05
2134	2.13e-05
2146	1.62e-05
2158	2.31e-05
2170	2.19e-05
2182	2.73e-05
2194	1.71e-05
2206	3.06e-05
2218	3.27e-05
2230	2.64e-05
2242	6e-06
2254	2.1e-06
2266	8.4e-06
2278	4.2e-06
2290	1.95e-05
2302	3.18e-05
2314	3.09e-05
2326	3.84e-05
2338	1.5e-05
2350	3e-05
2362	3.51e-05
2374	4.62e-05
2386	3.63e-05
2398	4.29e-05
2410	4.71e-05
2422	4.17e-05
2434	5.64e-05
2446	4.86e-05
2458	3.48e-05
2470	3.99e-05
2482	7.26e-05
2494	6.9e-05
2506	6.36e-05
2518	6.33e-05
2530	3.99e-05
2542	6.42e-05
2554	6.3e-05
2566	7.35e-05
2578	2.88e-05
2590	6.93e-05
2602	6.48e-05
2614	4.44e-05
2626	9.72e-05
2638	7.2e-05
2650	7.14e-05
2662	9.09e-05
2674	8.97e-05
2686	0.0001014
2698	7.98e-05
2710	0.0001014
2722	0.0001401
2734	0.0001857
2746	0.0001728
2758	0.0001614
2770	0.0001323
2782	0.0001563
2794	0.0001956
2806	0.0002529
2818	0.000321
2830	0.0004071
2842	0.0006372
2854	0.0010632
2866	0.001563
2878	0.0016434
2890	0.0016824
2902	0.0019317
2914	0.002484
2926	0.0029514
2938	0.0027657
2950	0.0022302
2962	0.0020259
2974	0.0021375
2986	0.0019566
2998	0.001527
3010	0.0012867
3022	0.0010203
3034	0.000813
3046	0.0007278
3058	0.0006321
3070	0.0006519
3082	0.0010464
3094	0.0012693
3106	0.0007083
3118	0.0002961
3130	0.0001761
3142	0.0001437
3154	0.0001713
3166	0.0001185
3178	0.0001053
3190	9.33e-05
3202	7.26e-05
3214	8.22e-05
3226	0.0001134
3238	0.0001005
3250	8.16e-05
3262	0.0001074
3274	8.64e-05
3286	9.18e-05
3298	8.13e-05
3310	0.0001008
3322	6.72e-05
3334	5.16e-05
3346	7.62e-05
3358	7.89e-05
3370	8.34e-05
3382	8.61e-05
3394	8.43e-05
3406	7.14e-05
3418	1.89e-05
3430	0.0001086
3442	8.46e-05
3454	8.04e-05
3466	7.68e-05
3478	8.82e-05
3490	5.61e-05
3502	5.16e-05
3514	7.38e-05
3526	9e-05
3538	6.24e-05
3550	4.53e-05
3562	5.61e-05
3574	6.42e-05
3586	5.4e-05
3598	6.33e-05
3610	1.11e-05
3622	5.49e-05
3634	6.42e-05
3646	4.11e-05
3658	7.83e-05
3670	6.06e-05
3682	4.59e-05
3694	7.53e-05
3706	8.46e-05
3718	5.7e-05
3730	6.99e-05
3742	4.32e-05
3754	6.6e-05
3766	0.0001041
3778	9.93e-05
3790	8.64e-05
3802	0.0001164
3814	7.98e-05
3826	7.44e-05
3838	7.44e-05
