Infrared Spectrum: 2-Amino-3-benzyl-5-(4-methoxyphenyl)pyrazine-1-oxide
Formula: C18H17N3O2
CAS: 123437-73-0
State: gas
Origin: EPA-IR VAPOR PHASE LIBRARY
1/CM	ABSORBANCE
549.8	0.004333
559.445	0.003053
569.09	0.002813
578.734	0.003423
588.379	0.002533
598.024	0.002593
607.669	0.002773
617.313	0.002793
626.958	0.003133
636.603	0.002933
646.248	0.002853
655.893	0.002013
665.537	0.002743
675.182	0.003093
684.827	0.002503
694.472	0.003923
704.116	0.003613
713.761	0.002753
723.406	0.003633
733.051	0.003953
742.695	0.002893
752.34	0.003213
761.985	0.002773
771.63	0.003033
781.275	0.002523
790.919	0.003043
800.564	0.002823
810.209	0.002613
819.854	0.002563
829.498	0.003373
839.143	0.003953
848.788	0.002893
858.433	0.0016022
868.078	0.002583
877.722	0.0013307
887.367	0.002173
897.012	0.001983
906.657	0.0018753
916.301	0.0014718
925.946	0.001953
935.591	0.0017992
945.236	0.002003
954.88	0.000697
964.525	0.0010431
974.17	0.0015403
983.815	0.001584
993.46	0.002023
1003.1	0.0018702
1012.75	0.0019063
1022.39	0.003303
1032.04	0.005373
1041.68	0.005543
1051.33	0.003003
1060.97	0.003293
1070.62	0.002123
1080.26	0.003563
1089.91	0.003613
1099.55	0.003533
1109.2	0.004243
1118.84	0.005393
1128.49	0.005683
1138.13	0.006213
1147.78	0.006363
1157.42	0.004853
1167.07	0.006773
1176.71	0.009573
1186.36	0.006273
1196	0.005753
1205.64	0.009313
1215.29	0.007893
1224.93	0.008833
1234.58	0.009243
1244.22	0.014503
1253.87	0.011183
1263.51	0.006373
1273.16	0.006613
1282.8	0.006843
1292.45	0.004653
1302.09	0.004013
1311.74	0.002843
1321.38	0.002713
1331.03	0.002663
1340.67	0.002293
1350.32	0.002413
1359.96	0.002843
1369.61	0.003653
1379.25	0.005283
1388.9	0.003713
1398.54	0.003053
1408.18	0.003913
1417.83	0.007003
1427.47	0.008393
1437.12	0.011083
1446.76	0.018473
1456.41	0.016753
1466.05	0.006803
1475.7	0.003953
1485.34	0.003133
1494.99	0.004153
1504.63	0.004663
1514.28	0.006693
1523.92	0.003323
1533.57	0.002143
1543.21	0.002163
1552.86	0.002713
1562.5	0.002563
1572.15	0.003093
1581.79	0.003643
1591.44	0.004683
1601.08	0.007593
1610.73	0.010833
1620.37	0.005913
1630.01	0.003013
1639.66	0.002333
1649.3	0.0017721
1658.95	0.0017421
1668.59	0.001827
1678.24	0.00146
1687.88	0.0017461
1697.53	0.0018387
1707.17	0.0017027
1716.82	0.001868
1726.46	0.0015928
1736.11	0.0017055
1745.75	0.0016272
1755.4	0.0016034
1765.04	0.0015969
1774.69	0.0016043
1784.33	0.0017429
1793.98	0.0015999
1803.62	0.001963
1813.27	0.0017112
1822.91	0.0017433
1832.55	0.0014156
1842.2	0.0015474
1851.84	0.0018057
1861.49	0.0016217
1871.13	0.002073
1880.78	0.0015352
1890.42	0.0015281
1900.07	0.0015473
1909.71	0.001396
1919.36	0.0016169
1929	0.0019069
1938.65	0.0014887
1948.29	0.0014243
1957.94	0.0014029
1967.58	0.0013137
1977.23	0.0014187
1986.87	0.0014442
1996.52	0.0013256
2006.16	0.0014949
2015.81	0.0011486
2025.45	0.0012941
2035.1	0.0014592
2044.74	0.0013553
2054.38	0.00147
2064.03	0.0014861
2073.67	0.0013152
2083.32	0.0014101
2092.96	0.0012495
2102.61	0.0013072
2112.25	0.001319
2121.9	0.0011604
2131.54	0.0013632
2141.19	0.0011055
2150.83	0.0011018
2160.48	0.0010948
2170.12	0.0015279
2179.77	0.0014032
2189.41	0.0013202
2199.06	0.0012374
2208.7	0.001363
2218.35	0.0014404
2227.99	0.0008782
2237.64	0.0011893
2247.28	0.0013525
2256.92	0.0010721
2266.57	0.0014788
2276.21	0.0010724
2285.86	0.0013339
2295.5	0.0013995
2305.15	0.00077
2314.79	0.0012011
2324.44	0.00096157
2334.08	0.0010728
2343.73	0.0010996
2353.37	0.00092545
2363.02	0.0008841
2372.66	0.0008975
2382.31	0.0014356
2391.95	0.0013742
2401.6	0.0013202
2411.24	0.0009455
2420.89	0.0012597
2430.53	0.000677
2440.18	0.00099998
2449.82	0.00064
2459.47	0.000774
2469.11	0.0012289
2478.75	0.000746
2488.4	0.0013968
2498.04	0.001095
2507.69	0.00095369
2517.33	0.0010856
2526.98	0.0012582
2536.62	0.0011924
2546.27	0.001362
2555.91	0.0013014
2565.56	0.0008399
2575.2	0.0010348
2584.85	0.0010441
2594.49	0.0010655
2604.14	0.0016061
2613.78	0.00099735
2623.43	0.0011527
2633.07	0.0013959
2642.72	0.0013299
2652.36	0.0013673
2662.01	0.0010762
2671.65	0.000677
2681.29	0.000934592
2690.94	0.000563
2700.58	0.00100302
2710.23	0.000764
2719.87	0.00098438
2729.52	0.000664
2739.16	0.0010071
2748.81	0.00101183
2758.45	0.000677
2768.1	0.0012458
2777.74	0.0010925
2787.39	0.001281
2797.03	0.0013498
2806.68	0.0010501
2816.32	0.0012546
2825.97	0.0014412
2835.61	0.0016697
2845.26	0.002533
2854.9	0.002243
2864.55	0.0018636
2874.19	0.0015726
2883.84	0.001206
2893.48	0.0016297
2903.12	0.0018375
2912.77	0.002623
2922.41	0.002533
2932.06	0.002843
2941.7	0.003233
2951.35	0.002893
2960.99	0.002643
2970.64	0.002013
2980.28	0.0015931
2989.93	0.0012263
2999.57	0.002483
3009.22	0.002663
3018.86	0.002283
3028.51	0.002973
3038.15	0.002903
3047.8	0.002693
3057.44	0.002943
3067.09	0.003443
3076.73	0.003003
3086.38	0.0017916
3096.02	0.0016827
3105.67	0.001607
3115.31	0.0013304
3124.95	0.000524
3134.6	0.0012192
3144.24	0.0013042
3153.89	0.000937705
3163.53	0.0016987
3173.18	0.0017108
3182.82	0.0008378
3192.47	0.000818
3202.11	0.0011491
3211.76	0.00097315
3221.4	0.0011768
3231.05	0.0011218
3240.69	0.000896
3250.34	0.000562
3259.98	0.0012679
3269.63	0.00096112
3279.27	0.0013541
3288.92	0.000141
3298.56	0.0017533
3308.21	0.0014758
3317.85	0.00098564
3327.49	0.000445
3337.14	0.000935818
3346.78	0.0015485
3356.43	0.000532
3366.07	0.001209
3375.72	0.001993
3385.36	0.0012309
3395.01	0.002483
3404.65	0.002873
3414.3	0.002253
3423.94	0.001806
3433.59	0.0012634
3443.23	0.0013183
3452.88	0.0017599
3462.52	0.001202
3472.17	0.001722
3481.81	0.0015815
3491.46	0.002513
3501.1	0.002463
3510.75	0.002733
3520.39	0.002063
3530.04	0.0018098
3539.68	0.0010601
3549.32	0.0015779
3558.97	0.0017558
3568.61	0.0010722
3578.26	0.000703
3587.9	0.001342
3597.55	0.0017199
3607.19	0.000815
3616.84	0.001372
3626.48	0.0012238
3636.13	0.0012001
3645.77	0.0017568
3655.42	0.0012965
3665.06	0.00094312
3674.71	0.0013565
3684.35	0.000713
3694	0.0014402
3703.64	0.0012627
3713.29	0.0012813
3722.93	0.0010865
3732.58	0.0013519
3742.22	0.0010552
3751.86	0.0017659
3761.51	0.0011943
3771.15	0.00097847
3780.8	0.00102875
3790.44	0.001242
3800.09	0.0016822
3809.73	0.00102227
3819.38	0.000665
3829.02	0.000935797
3838.67	0.0015621
3848.31	0.0010333
3857.96	0.0013478
3867.6	0.0016178
3877.25	0.00101601
3886.89	0.001973
3896.54	0.000627
3906.18	0.0013027
3915.83	0.0012712
3925.47	0.0012769
3935.12	0.001056
3944.76	0.0014547
3954.41	0.0015977
3964.05	0.0013542
3973.69	0.0014053
3983.34	0.000745
3992.98	0.00097362
