Infrared Spectrum: Succinic acid imide
Formula: C4H5NO2
CAS: 123-56-8
State: gas
Instrument: HP-GC/MS/IRD
Origin: NIST Mass Spectrometry Data Center
1/CM	ABSORBANCE
550	0.000435
562	0.0002415
574	9.9e-05
586	0.0002895
598	0.0005505
610	0.000816
622	0.001029
634	0.001743
646	0.0022005
658	0.0018075
670	0.00108
682	0.0005775
694	0.000324
706	0.0002445
718	0.000102
730	7.8e-05
742	0.000114
754	7.5e-05
766	0.0001005
778	8.7e-05
790	7.05e-05
802	9.9e-05
814	0.000183
826	0.0001755
838	0.000174
850	0.000141
862	0.000147
874	0.0003765
886	0.000636
898	0.0007005
910	0.0003585
922	0.0002235
934	0.000138
946	5.55e-05
958	2.85e-05
970	8.25e-05
982	0.000123
994	0.0001185
1006	0.0001215
1018	9.3e-05
1030	0.0001215
1042	7.8e-05
1054	0.0001455
1066	0.0001455
1078	0.0001185
1090	0.0001935
1102	0.0002835
1114	0.00069
1126	0.00177
1138	0.003207
1150	0.0040305
1162	0.0030435
1174	0.0011595
1186	0.0005055
1198	0.0005265
1210	0.000669
1222	0.000714
1234	0.0006705
1246	0.0005385
1258	0.000453
1270	0.000681
1282	0.0011175
1294	0.001251
1306	0.0012855
1318	0.0019095
1330	0.002796
1342	0.0025845
1354	0.0015
1366	0.0006795
1378	0.0003735
1390	0.000207
1402	0.0001275
1414	0.0001095
1426	0.000261
1438	0.0003015
1450	0.000288
1462	0.0001185
1474	3.75e-05
1486	2.85e-05
1498	1.5e-05
1510	2.55e-05
1522	5.25e-05
1534	0.000129
1546	0.000144
1558	0.0001905
1570	0.000219
1582	0.000144
1594	7.05e-05
1606	6e-05
1618	5.55e-05
1630	6.6e-05
1642	8.85e-05
1654	0.0001065
1666	0.0001935
1678	0.000294
1690	0.0005925
1702	0.001374
1714	0.0023175
1726	0.002805
1738	0.00378
1750	0.006741
1762	0.01203
1774	0.015
1786	0.012024
1798	0.004647
1810	0.0019875
1822	0.001482
1834	0.0008355
1846	0.00042
1858	0.0002475
1870	0.0002025
1882	0.000189
1894	0.000168
1906	0.000141
1918	0.00015
1930	0.0001395
1942	0.0001635
1954	0.0001245
1966	9.15e-05
1978	8.55e-05
1990	7.8e-05
2002	5.4e-05
2014	4.8e-05
2026	3.15e-05
2038	2.55e-05
2050	5.4e-05
2062	2.7e-05
2074	2.85e-05
2086	4.05e-05
2098	3.45e-05
2110	7.5e-06
2122	5.7e-05
2134	2.55e-05
2146	3.9e-05
2158	4.95e-05
2170	4.2e-05
2182	5.55e-05
2194	3.15e-05
2206	4.65e-05
2218	5.1e-05
2230	7.05e-05
2242	6.3e-05
2254	4.65e-05
2266	4.35e-05
2278	4.5e-05
2290	3.6e-05
2302	3.6e-05
2314	3.15e-05
2326	3.75e-05
2338	4.5e-05
2350	5.25e-05
2362	4.95e-05
2374	6e-05
2386	7.2e-05
2398	8.1e-05
2410	6.3e-05
2422	6e-05
2434	7.5e-05
2446	5.55e-05
2458	8.4e-05
2470	9.75e-05
2482	8.4e-05
2494	7.2e-05
2506	6.6e-05
2518	7.35e-05
2530	4.8e-05
2542	5.85e-05
2554	4.8e-05
2566	6e-05
2578	6.3e-05
2590	6.3e-05
2602	7.95e-05
2614	6.45e-05
2626	7.05e-05
2638	0.000105
2650	8.55e-05
2662	9e-05
2674	9.45e-05
2686	7.8e-05
2698	6.6e-05
2710	6.45e-05
2722	5.85e-05
2734	8.25e-05
2746	7.65e-05
2758	7.95e-05
2770	8.4e-05
2782	8.4e-05
2794	9.6e-05
2806	9.6e-05
2818	9.45e-05
2830	9.45e-05
2842	0.0001095
2854	7.2e-05
2866	5.7e-05
2878	8.85e-05
2890	6.9e-05
2902	4.35e-05
2914	3.75e-05
2926	9e-06
2938	5.25e-05
2950	0.000276
2962	0.0003285
2974	0.0002565
2986	0.0002415
2998	0.00024
3010	0.00018
3022	0.000105
3034	9e-05
3046	9.75e-05
3058	0.0001185
3070	0.0001065
3082	8.55e-05
3094	0.0001125
3106	0.0001095
3118	0.0001455
3130	0.0001365
3142	0.0001185
3154	0.0001155
3166	7.95e-05
3178	8.1e-05
3190	9.45e-05
3202	9.9e-05
3214	0.0001035
3226	7.65e-05
3238	7.65e-05
3250	8.4e-05
3262	9.9e-05
3274	9e-05
3286	9e-05
3298	7.65e-05
3310	7.05e-05
3322	7.8e-05
3334	8.85e-05
3346	8.1e-05
3358	6.45e-05
3370	9.45e-05
3382	8.85e-05
3394	8.25e-05
3406	0.0001245
3418	0.000198
3430	0.000432
3442	0.0009255
3454	0.001182
3466	0.001077
3478	0.0005265
3490	0.000222
3502	0.000138
3514	0.000114
3526	0.000186
3538	0.0001725
3550	0.00021
3562	0.00021
3574	0.000198
3586	0.0001245
3598	6.6e-05
3610	6.3e-05
3622	7.5e-05
3634	5.25e-05
3646	5.7e-05
3658	7.5e-05
3670	3.6e-05
3682	5.1e-05
3694	4.05e-05
3706	5.25e-05
3718	5.85e-05
3730	4.05e-05
3742	4.35e-05
3754	2.1e-05
3766	2.55e-05
3778	4.2e-05
3790	4.2e-05
3802	9e-06
3814	5.1e-05
3826	5.55e-05
3838	3.3e-05
