Infrared Spectrum: 3,5-Difluoroacetophenone
Formula: C8H6F2O
CAS: 123577-99-1
State: gas
Origin: EPA-IR VAPOR PHASE LIBRARY
1/CM	ABSORBANCE
549.8	0.006465
559.445	0.016805
569.09	0.017305
578.734	0.006725
588.379	0.003775
598.024	0.012445
607.669	0.043785
617.313	0.041835
626.958	0.010225
636.603	0.005305
646.248	0.005425
655.893	0.005945
665.537	0.016095
675.182	0.036455
684.827	0.022745
694.472	0.008345
704.116	0.002345
713.761	0.0016681
723.406	0.0015555
733.051	0.0013289
742.695	0.000327
752.34	0.000604
761.985	0.0010031
771.63	0.0011161
781.275	0.0014492
790.919	0.001935
800.564	0.0017319
810.209	0.0015931
819.854	0.003455
829.498	0.005025
839.143	0.011605
848.788	0.036375
858.433	0.079365
868.078	0.077835
877.722	0.072195
887.367	0.044235
897.012	0.014615
906.657	0.006795
916.301	0.005115
925.946	0.004575
935.591	0.006055
945.236	0.012675
954.88	0.028795
964.525	0.038345
974.17	0.032375
983.815	0.030545
993.46	0.048665
1003.1	0.051145
1012.75	0.031645
1022.39	0.013135
1032.04	0.007375
1041.68	0.006315
1051.33	0.004875
1060.97	0.007225
1070.62	0.008205
1080.26	0.009645
1089.91	0.012225
1099.55	0.013165
1109.2	0.037635
1118.84	0.127275
1128.49	0.150885
1138.13	0.067465
1147.78	0.014685
1157.42	0.009975
1167.07	0.010925
1176.71	0.015495
1186.36	0.029585
1196	0.068915
1205.64	0.076785
1215.29	0.036465
1224.93	0.017965
1234.58	0.008315
1244.22	0.004855
1253.87	0.004545
1263.51	0.006335
1273.16	0.010275
1282.8	0.013725
1292.45	0.023385
1302.09	0.058175
1311.74	0.175765
1321.38	0.317405
1331.03	0.239695
1340.67	0.078395
1350.32	0.060345
1359.96	0.099975
1369.61	0.082335
1379.25	0.029145
1388.9	0.016205
1398.54	0.015395
1408.18	0.017665
1417.83	0.033545
1427.47	0.089555
1437.12	0.137735
1446.76	0.110045
1456.41	0.060355
1466.05	0.042285
1475.7	0.025475
1485.34	0.017305
1494.99	0.013675
1504.63	0.014465
1514.28	0.016015
1523.92	0.015355
1533.57	0.012445
1543.21	0.012185
1552.86	0.016305
1562.5	0.027155
1572.15	0.055275
1581.79	0.105525
1591.44	0.147965
1601.08	0.149035
1610.73	0.130175
1620.37	0.103685
1630.01	0.060685
1639.66	0.032995
1649.3	0.022575
1658.95	0.019225
1668.59	0.018455
1678.24	0.020545
1687.88	0.028465
1697.53	0.083635
1707.17	0.173825
1716.82	0.153435
1726.46	0.054715
1736.11	0.026785
1745.75	0.023145
1755.4	0.021485
1765.04	0.014275
1774.69	0.007625
1784.33	0.004345
1793.98	0.003035
1803.62	0.003005
1813.27	0.002465
1822.91	0.002505
1832.55	0.002035
1842.2	0.001885
1851.84	0.0016347
1861.49	0.002015
1871.13	0.002445
1880.78	0.002645
1890.42	0.002035
1900.07	0.0015213
1909.71	0.0015355
1919.36	0.0015377
1929	0.002035
1938.65	0.001755
1948.29	0.0015192
1957.94	0.001795
1967.58	0.0016907
1977.23	0.002045
1986.87	0.002065
1996.52	0.002455
2006.16	0.002405
2015.81	0.002155
2025.45	0.0013302
2035.1	0.001388
2044.74	0.0012798
2054.38	0.0014294
2064.03	0.001845
2073.67	0.002375
2083.32	0.002345
2092.96	0.002085
2102.61	0.001895
2112.25	0.001875
2121.9	0.002015
2131.54	0.0017232
2141.19	0.001795
2150.83	0.001745
2160.48	0.001805
2170.12	0.001785
2179.77	0.0014976
2189.41	0.001403
2199.06	0.0012931
2208.7	0.0014758
2218.35	0.001438
2227.99	0.0016389
2237.64	0.001795
2247.28	0.0017395
2256.92	0.0014347
2266.57	0.0009745
2276.21	0.0014615
2285.86	0.0016607
2295.5	0.002065
2305.15	0.002145
2314.79	0.002745
2324.44	0.002455
2334.08	0.002125
2343.73	0.001765
2353.37	0.0016446
2363.02	0.001344
2372.66	0.0012374
2382.31	0.0014552
2391.95	0.0016368
2401.6	0.0015467
2411.24	0.001875
2420.89	0.002095
2430.53	0.002775
2440.18	0.003365
2449.82	0.002905
2459.47	0.002185
2469.11	0.001915
2478.75	0.001875
2488.4	0.0017411
2498.04	0.0014026
2507.69	0.0014628
2517.33	0.0011749
2526.98	0.0014582
2536.62	0.0015305
2546.27	0.0014631
2555.91	0.002065
2565.56	0.002635
2575.2	0.001805
2584.85	0.002435
2594.49	0.001905
2604.14	0.001915
2613.78	0.002005
2623.43	0.0017448
2633.07	0.002055
2642.72	0.002225
2652.36	0.002185
2662.01	0.0016775
2671.65	0.0015364
2681.29	0.0015492
2690.94	0.0013184
2700.58	0.0010094
2710.23	0.0012753
2719.87	0.0014328
2729.52	0.0013962
2739.16	0.001995
2748.81	0.001596
2758.45	0.0017028
2768.1	0.0013749
2777.74	0.0011194
2787.39	0.0012855
2797.03	0.0012607
2806.68	0.001855
2816.32	0.0010083
2825.97	0.0010501
2835.61	0.0017177
2845.26	0.001775
2854.9	0.002015
2864.55	0.0014626
2874.19	0.0014146
2883.84	0.0015497
2893.48	0.002105
2903.12	0.002435
2912.77	0.002365
2922.41	0.003125
2932.06	0.004665
2941.7	0.004105
2951.35	0.003595
2960.99	0.003495
2970.64	0.004565
2980.28	0.005435
2989.93	0.004135
2999.57	0.004485
3009.22	0.007445
3018.86	0.008325
3028.51	0.005595
3038.15	0.004235
3047.8	0.003215
3057.44	0.003895
3067.09	0.004405
3076.73	0.005615
3086.38	0.007395
3096.02	0.010675
3105.67	0.008105
3115.31	0.004225
3124.95	0.002415
3134.6	0.002225
3144.24	0.0014904
3153.89	0.0017209
3163.53	0.0014249
3173.18	0.001945
3182.82	0.001795
3192.47	0.0014591
3202.11	0.0011826
3211.76	0.001765
3221.4	0.0016317
3231.05	0.0009316
3240.69	0.0010235
3250.34	0.0016281
3259.98	0.0016631
3269.63	0.0008652
3279.27	0.0009716
3288.92	0.0011418
3298.56	0.0015968
3308.21	0.0011578
3317.85	0.0011299
3327.49	0.0015435
3337.14	0.0012827
3346.78	0.0012629
3356.43	0.0011985
3366.07	0.0015025
3375.72	0.0016041
3385.36	0.002865
3395.01	0.003805
3404.65	0.004995
3414.3	0.003065
3423.94	0.002245
3433.59	0.0014775
3443.23	0.0013889
3452.88	0.002145
3462.52	0.001297
3472.17	0.00082135
3481.81	0.001052
3491.46	0.0012388
3501.1	0.0013697
3510.75	0.0012925
3520.39	0.0011492
3530.04	0.001795
3539.68	0.000368
3549.32	0.0009868
3558.97	0.00076655
3568.61	0.0007553
3578.26	0.000586
3587.9	0.000488
3597.55	0.0016768
3607.19	0.0010682
3616.84	0.001718
3626.48	0.0014877
3636.13	0.000168
3645.77	0.000356
3655.42	0.0008889
3665.06	0.0015821
3674.71	0.0009028
3684.35	0.0006757
3694	0.0012281
3703.64	0.000369
3713.29	0.0014206
3722.93	0.0009511
3732.58	0.0009916
3742.22	0.0008891
3751.86	0.0014862
3761.51	0.0012864
3771.15	0.0017282
3780.8	0.000485
3790.44	0.0009317
3800.09	0.0010047
3809.73	0.0008815
3819.38	0.001093
3829.02	0.0012498
3838.67	0.0007178
3848.31	0.0017075
3857.96	0.000724
3867.6	0.0008605
3877.25	0.001975
3886.89	0.0012695
3896.54	0.0007005
3906.18	0.000532
3915.83	0.001975
3925.47	0.0009276
3935.12	0.0016617
3944.76	0.0012636
3954.41	0.0015593
3964.05	0.0012116
3973.69	0.0010864
3983.34	0.0009309
3992.98	0.0012685
