Infrared Spectrum: m-Phenylene diisocyanate
Formula: C8H4N2O2
CAS: 123-61-5
State: gas
Origin: EPA-IR VAPOR PHASE LIBRARY
1/CM	ABSORBANCE
549.8	0.003803
559.445	0.006573
569.09	0.011383
578.734	0.013743
588.379	0.013473
598.024	0.014953
607.669	0.019373
617.313	0.019773
626.958	0.016563
636.603	0.014453
646.248	0.014553
655.893	0.015643
665.537	0.018183
675.182	0.024913
684.827	0.018653
694.472	0.008163
704.116	0.004713
713.761	0.004693
723.406	0.004693
733.051	0.003623
742.695	0.002743
752.34	0.002953
761.985	0.008523
771.63	0.025053
781.275	0.038033
790.919	0.018923
800.564	0.005353
810.209	0.003603
819.854	0.004453
829.498	0.004883
839.143	0.005433
848.788	0.008833
858.433	0.021703
868.078	0.049923
877.722	0.063193
887.367	0.036163
897.012	0.010543
906.657	0.004043
916.301	0.002743
925.946	0.001893
935.591	0.001453
945.236	0.0009833
954.88	0.0004085
964.525	0.0004466
974.17	0.00019159
983.815	0
993.46	0.0002798
1003.1	0.00014871
1012.75	0.0002598
1022.39	0.0007369
1032.04	0.001333
1041.68	0.0010181
1051.33	0.0010517
1060.97	0.002913
1070.62	0.008133
1080.26	0.017973
1089.91	0.033453
1099.55	0.018903
1109.2	0.006293
1118.84	0.005253
1128.49	0.006803
1138.13	0.007503
1147.78	0.008073
1157.42	0.008803
1167.07	0.008943
1176.71	0.007893
1186.36	0.006213
1196	0.004903
1205.64	0.003383
1215.29	0.003173
1224.93	0.002913
1234.58	0.002793
1244.22	0.002173
1253.87	0.003353
1263.51	0.003703
1273.16	0.001863
1282.8	0.001513
1292.45	0.001853
1302.09	0.002033
1311.74	0.001773
1321.38	0.001773
1331.03	0.002223
1340.67	0.002093
1350.32	0.001753
1359.96	0.001813
1369.61	0.002043
1379.25	0.002143
1388.9	0.002483
1398.54	0.002773
1408.18	0.003123
1417.83	0.003873
1427.47	0.005373
1437.12	0.007163
1446.76	0.009473
1456.41	0.012273
1466.05	0.012873
1475.7	0.014993
1485.34	0.022913
1494.99	0.038413
1504.63	0.050833
1514.28	0.044243
1523.92	0.025573
1533.57	0.016343
1543.21	0.016803
1552.86	0.021673
1562.5	0.027483
1572.15	0.042703
1581.79	0.076273
1591.44	0.120193
1601.08	0.149083
1610.73	0.146043
1620.37	0.090663
1630.01	0.027383
1639.66	0.010293
1649.3	0.005453
1658.95	0.003043
1668.59	0.001933
1678.24	0.001413
1687.88	0.0010519
1697.53	0.0010865
1707.17	0.0010468
1716.82	0.001333
1726.46	0.001603
1736.11	0.001833
1745.75	0.001853
1755.4	0.001773
1765.04	0.002033
1774.69	0.001943
1784.33	0.001603
1793.98	0.001293
1803.62	0.001263
1813.27	0.001213
1822.91	0.001213
1832.55	0.001493
1842.2	0.002063
1851.84	0.002073
1861.49	0.001423
1871.13	0.001193
1880.78	0.0011303
1890.42	0.0010317
1900.07	0.0010461
1909.71	0.001323
1919.36	0.002023
1929	0.002333
1938.65	0.001593
1948.29	0.0009759
1957.94	0.0009969
1967.58	0.001143
1977.23	0.001363
1986.87	0.001373
1996.52	0.001513
2006.16	0.001643
2015.81	0.001883
2025.45	0.002183
2035.1	0.002553
2044.74	0.003193
2054.38	0.003833
2064.03	0.004523
2073.67	0.005603
2083.32	0.006233
2092.96	0.006583
2102.61	0.007583
2112.25	0.009763
2121.9	0.013193
2131.54	0.018663
2141.19	0.026913
2150.83	0.037163
2160.48	0.045783
2170.12	0.050563
2179.77	0.056813
2189.41	0.070773
2199.06	0.096203
2208.7	0.133353
2218.35	0.179023
2227.99	0.235153
2237.64	0.319493
2247.28	0.503013
2256.92	0.922873
2266.57	1.33725
2276.21	1.12458
2285.86	0.666743
2295.5	0.373723
2305.15	0.237563
2314.79	0.174543
2324.44	0.134873
2334.08	0.111803
2343.73	0.098373
2353.37	0.092283
2363.02	0.092613
2372.66	0.084553
2382.31	0.060183
2391.95	0.036663
2401.6	0.024183
2411.24	0.017263
2420.89	0.012823
2430.53	0.009823
2440.18	0.008103
2449.82	0.007153
2459.47	0.006653
2469.11	0.005803
2478.75	0.004533
2488.4	0.003383
2498.04	0.002563
2507.69	0.002143
2517.33	0.001843
2526.98	0.001563
2536.62	0.001363
2546.27	0.001393
2555.91	0.001483
2565.56	0.001573
2575.2	0.001793
2584.85	0.001873
2594.49	0.001643
2604.14	0.001323
2613.78	0.001153
2623.43	0.0010056
2633.07	0.0009849
2642.72	0.0009322
2652.36	0.0011254
2662.01	0.001323
2671.65	0.001593
2681.29	0.002063
2690.94	0.002593
2700.58	0.002793
2710.23	0.003003
2719.87	0.002833
2729.52	0.002723
2739.16	0.002593
2748.81	0.002313
2758.45	0.001993
2768.1	0.001423
2777.74	0.001313
2787.39	0.001173
2797.03	0.0010147
2806.68	0.0010383
2816.32	0.0009189
2825.97	0.0010744
2835.61	0.0009774
2845.26	0.001063
2854.9	0.0011084
2864.55	0.0009003
2874.19	0.001173
2883.84	0.001143
2893.48	0.001523
2903.12	0.001823
2912.77	0.002343
2922.41	0.002603
2932.06	0.002493
2941.7	0.002483
2951.35	0.002393
2960.99	0.002553
2970.64	0.002943
2980.28	0.003583
2989.93	0.003463
2999.57	0.003113
3009.22	0.002433
3018.86	0.001893
3028.51	0.001463
3038.15	0.001583
3047.8	0.002223
3057.44	0.004123
3067.09	0.006933
3076.73	0.008203
3086.38	0.005873
3096.02	0.003123
3105.67	0.002243
3115.31	0.002003
3124.95	0.002263
3134.6	0.003213
3144.24	0.004393
3153.89	0.004723
3163.53	0.004043
3173.18	0.002643
3182.82	0.001903
3192.47	0.001303
3202.11	0.0010026
3211.76	0.000732
3221.4	0.0003902
3231.05	0.0005126
3240.69	0.0004442
3250.34	0.0003757
3259.98	0.0003218
3269.63	0.0002697
3279.27	0.0003326
3288.92	0.0003322
3298.56	0.0003974
3308.21	0.0003753
3317.85	0.0007014
3327.49	0.0007942
3337.14	0.001273
3346.78	0.001753
3356.43	0.002773
3366.07	0.003883
3375.72	0.003933
3385.36	0.003573
3395.01	0.003903
3404.65	0.004793
3414.3	0.005453
3423.94	0.005193
3433.59	0.004953
3443.23	0.004263
3452.88	0.003193
3462.52	0.002413
3472.17	0.001643
3481.81	0.001463
3491.46	0.001183
3501.1	0.0009682
3510.75	0.0006658
3520.39	0.0008319
3530.04	0.001163
3539.68	0.001163
3549.32	0.0011051
3558.97	0.001393
3568.61	0.001503
3578.26	0.001433
3587.9	0.001563
3597.55	0.001983
3607.19	0.002203
3616.84	0.002433
3626.48	0.002663
3636.13	0.002843
3645.77	0.003513
3655.42	0.004033
3665.06	0.004773
3674.71	0.005393
3684.35	0.005373
3694	0.005313
3703.64	0.004763
3713.29	0.004223
3722.93	0.003543
3732.58	0.003493
3742.22	0.003213
3751.86	0.003523
3761.51	0.003773
3771.15	0.003913
3780.8	0.003773
3790.44	0.003453
3800.09	0.002843
3809.73	0.002283
3819.38	0.001853
3829.02	0.001463
3838.67	0.001163
3848.31	0.0010817
3857.96	0.0008971
3867.6	0.0007754
3877.25	0.0006044
3886.89	0.0004112
3896.54	0.0004211
3906.18	0.0004954
3915.83	0.000139409
3925.47	0.0005391
3935.12	0.0003712
3944.76	0.0003658
3954.41	0.00017281
3964.05	0.00020819
3973.69	0.0003835
3983.34	0.00016139
3992.98	0.0003214
