Infrared Spectrum: 3,3'-Bis(methylamino)-N-methyldipropylamine
Formula: C9H23N3
CAS: 123-70-6
State: gas
Instrument: HP-GC/MS/IRD
Origin: NIST Mass Spectrometry Data Center
1/CM	ABSORBANCE
550	0.003213
562	0.0006345
574	0.000459
586	0.0004995
598	0.000945
610	0.001809
622	0.003213
634	0.0050895
646	0.007425
658	0.0101385
670	0.0131625
682	0.0158355
694	0.0180225
706	0.0199935
718	0.0200745
730	0.016713
742	0.0125145
754	0.009504
766	0.007452
778	0.0060345
790	0.004752
802	0.004077
814	0.004023
826	0.00459
838	0.004779
850	0.0040365
862	0.0033615
874	0.0030645
886	0.0028755
898	0.0030375
910	0.0033075
922	0.0034155
934	0.003294
946	0.003537
958	0.0043335
970	0.00513
982	0.005751
994	0.007047
1006	0.009477
1018	0.014256
1030	0.0190215
1042	0.02133
1054	0.023355
1066	0.022437
1078	0.016092
1090	0.0128385
1102	0.0185625
1114	0.029511
1126	0.0361935
1138	0.0361935
1150	0.0347355
1162	0.029322
1174	0.022086
1186	0.0167265
1198	0.014175
1210	0.0120285
1222	0.0096255
1234	0.0093285
1246	0.009747
1258	0.0099495
1270	0.010044
1282	0.008991
1294	0.0095985
1306	0.011205
1318	0.011448
1330	0.011151
1342	0.0147285
1354	0.0183195
1366	0.0197505
1378	0.0161595
1390	0.0098955
1402	0.0063585
1414	0.006993
1426	0.0114615
1438	0.020466
1450	0.032805
1462	0.0385425
1474	0.034533
1486	0.0178605
1498	0.007479
1510	0.003888
1522	0.002376
1534	0.001566
1546	0.001107
1558	0.000837
1570	0.0006615
1582	0.0005265
1594	0.000459
1606	0.000405
1618	0.0004185
1630	0.000486
1642	0.000594
1654	0.000513
1666	0.0002835
1678	0.000162
1690	8.1e-05
1702	9.45e-05
1714	6.75e-05
1726	0
1738	0
1750	2.7e-05
1762	8.1e-05
1774	0.0001485
1786	0.0002565
1798	0.0003375
1810	0.000432
1822	0.0005535
1834	0.0006075
1846	0.000648
1858	0.000621
1870	0.000621
1882	0.0005265
1894	0.0004995
1906	0.000432
1918	0.0003915
1930	0.000405
1942	0.0004455
1954	0.0004455
1966	0.0004725
1978	0.000486
1990	0.00054
2002	0.0005805
2014	0.0006345
2026	0.0006885
2038	0.0007425
2050	0.000756
2062	0.0007965
2074	0.00081
2086	0.0007695
2098	0.0006615
2110	0.000621
2122	0.00054
2134	0.0004725
2146	0.0004725
2158	0.0004455
2170	0.0004455
2182	0.0004455
2194	0.000486
2206	0.000459
2218	0.000459
2230	0.0005265
2242	0.00054
2254	0.0004995
2266	0.000513
2278	0.00054
2290	0.0005805
2302	0.000621
2314	0.0006345
2326	0.0006885
2338	0.000675
2350	0.0007425
2362	0.000756
2374	0.00081
2386	0.000729
2398	0.000729
2410	0.0007965
2422	0.0008505
2434	0.000891
2446	0.000999
2458	0.001026
2470	0.001215
2482	0.0014985
2494	0.0017415
2506	0.0019575
2518	0.0020655
2530	0.0021735
2542	0.002268
2554	0.0024705
2566	0.0027405
2578	0.0030915
2590	0.0035505
2602	0.0040095
2614	0.004563
2626	0.005184
2638	0.0058995
2650	0.0069255
2662	0.0085455
2674	0.010719
2686	0.0132705
2698	0.015849
2710	0.01836
2722	0.021114
2734	0.0245565
2746	0.030402
2758	0.045063
2770	0.072522
2782	0.099576
2794	0.130356
2806	0.122553
2818	0.0925695
2830	0.0767475
2842	0.07749
2854	0.0803385
2866	0.0720495
2878	0.068418
2890	0.072414
2902	0.077085
2914	0.083808
2926	0.101317
2938	0.124875
2950	0.13369
2962	0.104396
2974	0.081135
2986	0.0503145
2998	0.0227475
3010	0.0133245
3022	0.0095445
3034	0.007587
3046	0.006345
3058	0.005454
3070	0.004725
3082	0.0040365
3094	0.003429
3106	0.003024
3118	0.0026325
3130	0.0023625
3142	0.0021195
3154	0.0019575
3166	0.0018495
3178	0.0017685
3190	0.0015795
3202	0.0014175
3214	0.001269
3226	0.0011745
3238	0.001134
3250	0.0011475
3262	0.0009855
3274	0.0009585
3286	0.001026
3298	0.0010125
3310	0.001215
3322	0.0018495
3334	0.0030105
3346	0.0031185
3358	0.002349
3370	0.00162
3382	0.0012555
3394	0.001026
3406	0.000864
3418	0.0008235
3430	0.0007695
3442	0.000675
3454	0.0006345
3466	0.0005535
3478	0.00054
3490	0.0004725
3502	0.0004185
3514	0.0004185
3526	0.000432
3538	0.0004995
3550	0.000432
3562	0.0004995
3574	0.0004995
3586	0.0004995
3598	0.000486
3610	0.0004995
3622	0.00054
3634	0.0005265
3646	0.000621
3658	0.0005805
3670	0.000621
3682	0.0006615
3694	0.000567
3706	0.0006075
3718	0.0006345
3730	0.000594
3742	0.0006345
3754	0.0006345
3766	0.000702
3778	0.0006345
3790	0.000675
3802	0.00081
3814	0.0008235
3826	0.000756
3838	0.000837
