Infrared Spectrum: 2-Aminoheptane
Formula: C7H17N
CAS: 123-82-0
State: gas
Instrument: HP-GC/MS/IRD
Origin: NIST Mass Spectrometry Data Center
1/CM	ABSORBANCE
550	0.0005895
562	9.45e-05
574	0.000351
586	0.000414
598	0.0003645
610	0.0004815
622	0.000603
634	0.0005445
646	0.0006165
658	0.0009765
670	0.001152
682	0.0014265
694	0.001728
706	0.0022365
718	0.00297
730	0.003942
742	0.004905
754	0.0061785
766	0.008073
778	0.009918
790	0.009963
802	0.007542
814	0.0049905
826	0.0036675
838	0.002889
850	0.00225
862	0.0017145
874	0.001314
886	0.001035
898	0.000855
910	0.000747
922	0.000675
934	0.000657
946	0.000756
958	0.000837
970	0.000702
982	0.0004905
994	0.0004995
1006	0.0005625
1018	0.000774
1030	0.000963
1042	0.001116
1054	0.0011115
1066	0.0011295
1078	0.0011475
1090	0.001152
1102	0.0011475
1114	0.0014085
1126	0.001872
1138	0.0024435
1150	0.0026415
1162	0.0018
1174	0.001071
1186	0.0008955
1198	0.0009
1210	0.000819
1222	0.0007965
1234	0.000774
1246	0.0007155
1258	0.000693
1270	0.000756
1282	0.000927
1294	0.001071
1306	0.0012915
1318	0.001602
1330	0.002295
1342	0.003123
1354	0.003528
1366	0.004473
1378	0.0055035
1390	0.0042255
1402	0.0022005
1414	0.001458
1426	0.0016065
1438	0.002601
1450	0.00423
1462	0.0051525
1474	0.003978
1486	0.0021825
1498	0.001278
1510	0.000936
1522	0.000765
1534	0.0006885
1546	0.0006885
1558	0.000765
1570	0.0009045
1582	0.0012195
1594	0.0018405
1606	0.0029025
1618	0.0037935
1630	0.003267
1642	0.0019575
1654	0.0011205
1666	0.0006615
1678	0.0004635
1690	0.0003375
1702	0.000288
1714	0.0002385
1726	0.0001935
1738	0.0001845
1750	0.0001575
1762	0.000153
1774	0.000135
1786	0.000126
1798	0.0001215
1810	0.000117
1822	9.45e-05
1834	0.0001035
1846	0.000117
1858	9.45e-05
1870	9.45e-05
1882	9e-05
1894	8.1e-05
1906	7.65e-05
1918	6.3e-05
1930	5.85e-05
1942	6.3e-05
1954	5.85e-05
1966	7.2e-05
1978	4.05e-05
1990	6.3e-05
2002	6.3e-05
2014	6.3e-05
2026	9.9e-05
2038	7.65e-05
2050	8.55e-05
2062	6.3e-05
2074	4.95e-05
2086	5.85e-05
2098	5.4e-05
2110	4.95e-05
2122	4.5e-05
2134	8.1e-05
2146	5.85e-05
2158	5.85e-05
2170	4.95e-05
2182	6.75e-05
2194	7.2e-05
2206	4.5e-05
2218	5.4e-05
2230	4.05e-05
2242	5.4e-05
2254	9.9e-05
2266	0.0001035
2278	9e-05
2290	9e-05
2302	7.2e-05
2314	0.000126
2326	0.000135
2338	0.000117
2350	0.0001125
2362	0.0001395
2374	0.0001305
2386	0.0001305
2398	0.000135
2410	0.000144
2422	0.0001395
2434	0.000162
2446	0.000135
2458	0.000117
2470	0.000153
2482	0.000153
2494	0.0001575
2506	0.0001845
2518	0.0001845
2530	0.000225
2542	0.0002745
2554	0.000333
2566	0.0003735
2578	0.000423
2590	0.0004725
2602	0.0005355
2614	0.0005985
2626	0.0006525
2638	0.0007245
2650	0.0007965
2662	0.000882
2674	0.000909
2686	0.0009045
2698	0.000882
2710	0.0009405
2722	0.001071
2734	0.001188
2746	0.001269
2758	0.0012375
2770	0.0013095
2782	0.001584
2794	0.0020115
2806	0.002619
2818	0.003609
2830	0.0054225
2842	0.0089325
2854	0.0144225
2866	0.0188505
2878	0.0202275
2890	0.019359
2902	0.0217215
2914	0.0309375
2926	0.0421875
2938	0.0439065
2950	0.036648
2962	0.0373095
2974	0.031032
2986	0.0147465
2998	0.00639
3010	0.0035775
3022	0.002538
3034	0.0019665
3046	0.0015705
3058	0.0013095
3070	0.001143
3082	0.0010485
3094	0.000981
3106	0.0008235
3118	0.00072
3130	0.000657
3142	0.0006075
3154	0.0006165
3166	0.0005715
3178	0.000576
3190	0.000558
3202	0.0004725
3214	0.0004005
3226	0.0003015
3238	0.000252
3250	0.000261
3262	0.000234
3274	0.0001845
3286	0.000216
3298	0.000216
3310	0.000279
3322	0.0004455
3334	0.0005625
3346	0.0004635
3358	0.000324
3370	0.000216
3382	0.000216
3394	0.000198
3406	0.0001755
3418	0.0001305
3430	9.45e-05
3442	0.000108
3454	0.0001125
3466	4.95e-05
3478	4.95e-05
3490	7.65e-05
3502	6.75e-05
3514	8.1e-05
3526	4.5e-05
3538	4.95e-05
3550	7.65e-05
3562	4.05e-05
3574	7.65e-05
3586	5.4e-05
3598	7.65e-05
3610	9.9e-05
3622	8.1e-05
3634	0.000126
3646	0.0001035
3658	7.2e-05
3670	7.65e-05
3682	6.3e-05
3694	0.0001305
3706	0.0001035
3718	6.75e-05
3730	0.000108
3742	0.0001485
3754	0.000135
3766	9e-05
3778	0.0001215
3790	0.0001035
3802	0.000153
3814	0.0001305
3826	0.0001305
3838	0.000144
