Infrared Spectrum: N,N-Dimethyl-N'-ethylethylenediamine
Formula: C6H16N2
CAS: 123-83-1
State: gas
Origin: EPA-IR VAPOR PHASE LIBRARY
1/CM	ABSORBANCE
501.5	0.00155737
513.074	0.00172737
524.648	0.00144737
536.222	0.00133737
547.796	0.00131737
559.37	0.00162737
570.944	0.00147737
582.518	0.00150737
594.092	0.00173737
605.666	0.00205737
617.24	0.00245737
628.814	0.00298737
640.388	0.00377737
651.962	0.00478737
663.536	0.00581737
675.11	0.00674737
686.684	0.00757737
698.258	0.00823737
709.832	0.00865737
721.406	0.00836737
732.98	0.00751737
744.554	0.00644737
756.128	0.00570737
767.702	0.00562737
779.276	0.00561737
790.85	0.00445737
802.423	0.00323737
813.997	0.00280737
825.571	0.00266737
837.145	0.00285737
848.719	0.00278737
860.293	0.00257737
871.867	0.00206737
883.441	0.00173737
895.015	0.00166737
906.589	0.00177737
918.163	0.00206737
929.737	0.00266737
941.311	0.00379737
952.885	0.00428737
964.459	0.00348737
976.033	0.00288737
987.607	0.00324737
999.181	0.00463737
1010.76	0.00748737
1022.33	0.0121574
1033.9	0.0180074
1045.48	0.0222574
1057.05	0.0201374
1068.63	0.0129474
1080.2	0.00829737
1091.77	0.00802737
1103.35	0.0103774
1114.92	0.0144874
1126.49	0.0198874
1138.07	0.0225874
1149.64	0.0199374
1161.22	0.0134674
1172.79	0.00835737
1184.36	0.00597737
1195.94	0.00489737
1207.51	0.00426737
1219.09	0.00388737
1230.66	0.00487737
1242.23	0.00713737
1253.81	0.00902737
1265.38	0.0108874
1276.96	0.0115974
1288.53	0.0101874
1300.1	0.00844737
1311.68	0.00733737
1323.25	0.00779737
1334.83	0.00947737
1346.4	0.0100674
1357.97	0.00933737
1369.55	0.00963737
1381.12	0.00985737
1392.7	0.00758737
1404.27	0.00561737
1415.84	0.00546737
1427.42	0.00799737
1438.99	0.0151374
1450.57	0.0249874
1462.14	0.0285474
1473.71	0.0214074
1485.29	0.0112774
1496.86	0.00550737
1508.44	0.00328737
1520.01	0.00230737
1531.58	0.00176737
1543.16	0.00137737
1554.73	0.00113737
1566.31	0.00090247
1577.88	0.00079457
1589.45	0.00070307
1601.03	0.00066847
1612.6	0.00061497
1624.18	0.00062927
1635.75	0.00061237
1647.32	0.00060857
1658.9	0.00059727
1670.47	0.00061467
1682.05	0.00057647
1693.62	0.00049627
1705.19	0.00044017
1716.77	0.00044437
1728.34	0.00040627
1739.92	0.00034897
1751.49	0.00033667
1763.06	0.00032887
1774.64	0.00033837
1786.21	0.00035387
1797.79	0.00043767
1809.36	0.00047247
1820.93	0.00050277
1832.51	0.00048947
1844.08	0.00046417
1855.66	0.00043467
1867.23	0.00044557
1878.8	0.00042467
1890.38	0.00039957
1901.95	0.00037037
1913.53	0.00033427
1925.1	0.00033647
1936.67	0.00031527
1948.25	0.00030777
1959.82	0.00030377
1971.4	0.00028467
1982.97	0.00028597
1994.54	0.00030357
2006.12	0.00033277
2017.69	0.00032187
2029.27	0.00037247
2040.84	0.00038107
2052.41	0.00035917
2063.99	0.00034017
2075.56	0.00036847
2087.14	0.00036137
2098.71	0.00032147
2110.28	0.00029007
2121.86	0.00026387
2133.43	0.00031247
2145.01	0.00029227
2156.58	0.00022467
2168.15	0.00021397
2179.73	0.00021117
2191.3	0.00023987
2202.88	0.00020177
2214.45	0.00026057
2226.02	0.00028907
2237.6	0.00026737
2249.17	0.00030047
2260.74	0.00025157
2272.32	0.00026897
2283.89	0.00027277
2295.47	0.00031457
2307.04	0.00029617
2318.61	0.00032427
2330.19	0.00032277
2341.76	0.00032337
2353.34	0.00034077
2364.91	0.00034127
2376.48	0.00035857
2388.06	0.00041367
2399.63	0.00046927
2411.21	0.00048127
2422.78	0.00047617
2434.35	0.00048797
2445.93	0.00046217
2457.5	0.00055417
2469.08	0.00065207
2480.65	0.00082587
2492.22	0.00099217
2503.8	0.00108737
2515.37	0.00107737
2526.95	0.00110737
2538.52	0.00112737
2550.09	0.00115737
2561.67	0.00122737
2573.24	0.00138737
2584.82	0.00158737
2596.39	0.00177737
2607.96	0.00191737
2619.54	0.00223737
2631.11	0.00261737
2642.69	0.00307737
2654.26	0.00362737
2665.83	0.00419737
2677.41	0.00506737
2688.98	0.00623737
2700.56	0.00776737
2712.13	0.00958737
2723.7	0.0120374
2735.28	0.0151274
2746.85	0.0199074
2758.43	0.0305974
2770	0.0490174
2781.57	0.0578674
2793.15	0.0535974
2804.72	0.0525474
2816.3	0.0578174
2827.87	0.0572674
2839.44	0.0446974
2851.02	0.0361374
2862.59	0.0339674
2874.17	0.0349774
2885.74	0.0368774
2897.31	0.0379674
2908.89	0.0389674
2920.46	0.0422674
2932.04	0.0510774
2943.61	0.0605074
2955.18	0.0623674
2966.76	0.0632174
2978.33	0.0561374
2989.91	0.0323474
3001.48	0.0141774
3013.05	0.00776737
3024.63	0.00535737
3036.2	0.00416737
3047.78	0.00331737
3059.35	0.00277737
3070.92	0.00235737
3082.5	0.00210737
3094.07	0.00178737
3105.65	0.00165737
3117.22	0.00143737
3128.79	0.00133737
3140.37	0.00119737
3151.94	0.00111737
3163.52	0.00108737
3175.09	0.00103737
3186.66	0.00100737
3198.24	0.00093327
3209.81	0.00083537
3221.39	0.00068447
3232.96	0.00054127
3244.53	0.00044477
3256.11	0.00042517
3267.68	0.00039677
3279.26	0.00031967
3290.83	0.00031407
3302.4	0.00023717
3313.98	0.00043107
3325.55	0.00072587
3337.13	0.00109737
3348.7	0.00117737
3360.27	0.00081907
3371.85	0.00046287
3383.42	0.00036477
3395	0.00032837
3406.57	0.00024987
3418.14	0.00026217
3429.72	0.00025887
3441.29	0.00011257
3452.86	7.277e-05
3464.44	9.059e-05
3476.01	0.00014877
3487.59	4.604e-05
3499.16	9.9e-05
3510.73	7.467e-05
3522.31	1.41e-06
3533.88	8.459e-06
3545.46	5.901e-05
3557.03	7.656e-05
3568.6	3.656e-05
3580.18	9.874e-05
3591.75	3.944e-05
3603.33	6.309e-05
3614.9	1.939e-05
3626.47	0.00010421
3638.05	0.00012407
3649.62	0.00011717
3661.2	0.00015487
3672.77	0.00015677
3684.34	0.00013507
3695.92	0.00011217
3707.49	9.152e-05
3719.07	0.00010409
3730.64	0.00021777
3742.21	6.965e-05
3753.79	0.00018267
3765.36	0.00019267
3776.94	0.00017657
3788.51	0.00021567
3800.08	0.00013337
3811.66	0.00023367
3823.23	0.00029757
3834.81	0.00028007
3846.38	0.00020787
3857.95	0.00022307
3869.53	0.00032987
3881.1	0.00016577
3892.68	0.00026107
3904.25	0.00034987
3915.82	0.00029437
3927.4	0.00029247
3938.97	0.00029447
3950.55	0.00052557
3962.12	0.00054197
3973.69	0.00044367
3985.27	0.00051967
3996.84	0.00039977
