Infrared Spectrum: 3-Amino-2-fluorobenzotrifluoride
Formula: C7H5F4N
CAS: 123973-25-1
State: gas
Origin: EPA-IR VAPOR PHASE LIBRARY
1/CM	ABSORBANCE
549.8	0.003285
559.445	0.003795
569.09	0.003865
578.734	0.003585
588.379	0.004045
598.024	0.004665
607.669	0.004965
617.313	0.006525
626.958	0.007435
636.603	0.006905
646.248	0.006665
655.893	0.007275
665.537	0.008725
675.182	0.009195
684.827	0.007085
694.472	0.006195
704.116	0.007145
713.761	0.011155
723.406	0.018295
733.051	0.017375
742.695	0.010305
752.34	0.005225
761.985	0.005195
771.63	0.007245
781.275	0.013545
790.919	0.012145
800.564	0.007745
810.209	0.005955
819.854	0.007325
829.498	0.007845
839.143	0.005995
848.788	0.004025
858.433	0.002995
868.078	0.003505
877.722	0.003055
887.367	0.003115
897.012	0.004955
906.657	0.011355
916.301	0.019055
925.946	0.012875
935.591	0.003565
945.236	0.002645
954.88	0.002115
964.525	0.002815
974.17	0.002805
983.815	0.001985
993.46	0.002135
1003.1	0.002445
1012.75	0.002695
1022.39	0.002165
1032.04	0.003025
1041.68	0.004125
1051.33	0.006395
1060.97	0.007095
1070.62	0.007095
1080.26	0.007985
1089.91	0.012635
1099.55	0.016945
1109.2	0.017175
1118.84	0.011935
1128.49	0.016065
1138.13	0.032615
1147.78	0.064605
1157.42	0.099865
1167.07	0.086065
1176.71	0.043055
1186.36	0.022525
1196	0.028915
1205.64	0.032665
1215.29	0.026485
1224.93	0.028325
1234.58	0.021485
1244.22	0.007375
1253.87	0.005295
1263.51	0.005475
1273.16	0.005865
1282.8	0.010405
1292.45	0.023485
1302.09	0.033595
1311.74	0.040155
1321.38	0.055735
1331.03	0.074345
1340.67	0.086415
1350.32	0.050295
1359.96	0.011485
1369.61	0.004745
1379.25	0.003215
1388.9	0.002345
1398.54	0.001955
1408.18	0.002305
1417.83	0.002575
1427.47	0.002315
1437.12	0.002745
1446.76	0.003305
1456.41	0.003915
1466.05	0.007465
1475.7	0.017955
1485.34	0.038145
1494.99	0.051605
1504.63	0.040385
1514.28	0.019335
1523.92	0.007115
1533.57	0.003865
1543.21	0.002735
1552.86	0.002465
1562.5	0.002835
1572.15	0.003585
1581.79	0.004995
1591.44	0.007565
1601.08	0.010825
1610.73	0.015165
1620.37	0.017415
1630.01	0.018575
1639.66	0.016875
1649.3	0.011065
1658.95	0.006795
1668.59	0.004275
1678.24	0.003045
1687.88	0.002175
1697.53	0.0017042
1707.17	0.0013605
1716.82	0.0012234
1726.46	0.0015547
1736.11	0.0015413
1745.75	0.0016704
1755.4	0.0018249
1765.04	0.001533
1774.69	0.0014419
1784.33	0.0015353
1793.98	0.0014033
1803.62	0.001234
1813.27	0.0016106
1822.91	0.0017666
1832.55	0.001843
1842.2	0.0015419
1851.84	0.0012137
1861.49	0.001261
1871.13	0.0011935
1880.78	0.0014029
1890.42	0.0013999
1900.07	0.0015647
1909.71	0.001753
1919.36	0.0014948
1929	0.0013725
1938.65	0.0012746
1948.29	0.0010853
1957.94	0.0014636
1967.58	0.0013268
1977.23	0.0011077
1986.87	0.0010818
1996.52	0.0012846
2006.16	0.0011475
2015.81	0.0011116
2025.45	0.0012772
2035.1	0.0012288
2044.74	0.0011142
2054.38	0.001353
2064.03	0.0013721
2073.67	0.0012819
2083.32	0.0013315
2092.96	0.00093675
2102.61	0.0010186
2112.25	0.0013194
2121.9	0.0010968
2131.54	0.00099012
2141.19	0.00100198
2150.83	0.00094649
2160.48	0.0011122
2170.12	0.00097359
2179.77	0.000949
2189.41	0.0011514
2199.06	0.0011694
2208.7	0.0013182
2218.35	0.001304
2227.99	0.0013716
2237.64	0.00137
2247.28	0.0012172
2256.92	0.0010989
2266.57	0.0012225
2276.21	0.0011237
2285.86	0.0010923
2295.5	0.0013465
2305.15	0.0014019
2314.79	0.0014098
2324.44	0.0012774
2334.08	0.0011263
2343.73	0.0010481
2353.37	0.0011081
2363.02	0.00099119
2372.66	0.000852
2382.31	0.0010735
2391.95	0.0012767
2401.6	0.00096425
2411.24	0.001147
2420.89	0.0008722
2430.53	0.001023
2440.18	0.0011383
2449.82	0.0013046
2459.47	0.000753
2469.11	0.00097666
2478.75	0.00099364
2488.4	0.0011176
2498.04	0.0012588
2507.69	0.0012563
2517.33	0.00099332
2526.98	0.00090361
2536.62	0.0008747
2546.27	0.0011223
2555.91	0.0010316
2565.56	0.0010433
2575.2	0.000679
2584.85	0.0008763
2594.49	0.00089864
2604.14	0.0011391
2613.78	0.0012107
2623.43	0.0012961
2633.07	0.0012157
2642.72	0.0010832
2652.36	0.0013577
2662.01	0.0013963
2671.65	0.00097363
2681.29	0.0012715
2690.94	0.000732
2700.58	0.0011286
2710.23	0.0011645
2719.87	0.000757
2729.52	0.000557
2739.16	0.0008169
2748.81	0.0008855
2758.45	0.000629
2768.1	0.00092564
2777.74	0.00072
2787.39	0.0011324
2797.03	0.0010364
2806.68	0.0010643
2816.32	0.00094654
2825.97	0.00096141
2835.61	0.0010911
2845.26	0.0008898
2854.9	0.0011256
2864.55	0.0010542
2874.19	0.0010898
2883.84	0.0013423
2893.48	0.0013741
2903.12	0.0008869
2912.77	0.0012631
2922.41	0.0012768
2932.06	0.0012386
2941.7	0.0012914
2951.35	0.001104
2960.99	0.0011189
2970.64	0.0013447
2980.28	0.0012894
2989.93	0.0012585
2999.57	0.00079
3009.22	0.00021
3018.86	0.001266
3028.51	0.002365
3038.15	0.003905
3047.8	0.003455
3057.44	0.002945
3067.09	0.003305
3076.73	0.002625
3086.38	0.0018312
3096.02	0.002235
3105.67	0.0017466
3115.31	0.0015231
3124.95	0.0008312
3134.6	0.000779
3144.24	0.0011424
3153.89	0.0012862
3163.53	0.001042
3173.18	0.0012258
3182.82	0.00099045
3192.47	0.0012305
3202.11	0.0010185
3211.76	0.0012482
3221.4	0.0008317
3231.05	0.00091842
3240.69	0.00093804
3250.34	0.00096304
3259.98	0.0011597
3269.63	0.0011831
3279.27	0.00094743
3288.92	0.00045
3298.56	0.000602
3308.21	0.00092766
3317.85	0.001104
3327.49	0.0008552
3337.14	0.00096247
3346.78	0.000543
3356.43	0.000157
3366.07	0.00073
3375.72	0.000905174
3385.36	0.0016471
3395.01	0.002585
3404.65	0.003755
3414.3	0.006085
3423.94	0.007885
3433.59	0.005445
3443.23	0.003495
3452.88	0.0013477
3462.52	0.0014052
3472.17	0.0013281
3481.81	0.002015
3491.46	0.003625
3501.1	0.005595
3510.75	0.005475
3520.39	0.004685
3530.04	0.004155
3539.68	0.002375
3549.32	0.0012617
3558.97	0.00093625
3568.61	0.0010807
3578.26	0.000751
3587.9	0.0011841
3597.55	0.0013074
3607.19	0.0008527
3616.84	0.0012341
3626.48	0.001305
3636.13	0.00092631
3645.77	0.000552
3655.42	0.0014198
3665.06	0.0016894
3674.71	0.0012139
3684.35	0.0012346
3694	0.0010462
3703.64	0.000557
3713.29	0.00096065
3722.93	0.000462
3732.58	0.0013185
3742.22	0.000805
3751.86	0.000646
3761.51	0.0010128
3771.15	0.00094577
3780.8	0.0008748
3790.44	0.000518
3800.09	0.0008937
3809.73	0.0014513
3819.38	0.0010536
3829.02	0.000525
3838.67	0.0010237
3848.31	0.0014484
3857.96	0.001744
3867.6	0.0013075
3877.25	0.0014494
3886.89	0.00094254
3896.54	0.0013772
3906.18	0.0014779
3915.83	0.0010479
3925.47	0.000739
3935.12	0.0014821
3944.76	0.0015914
3954.41	0.001084
3964.05	0.000788
3973.69	0.0017629
3983.34	0.0018885
3992.98	0.000546
