Infrared Spectrum: Nonanedioic acid
Formula: C9H16O4
CAS: 123-99-9
State: gas
Instrument: HP-GC/MS/IRD
Origin: NIST Mass Spectrometry Data Center
1/CM	ABSORBANCE
550	0.001328
562	0.001314
574	0.001321
586	0.001527
598	0.001639
610	0.001698
622	0.001496
634	0.001335
646	0.000975
658	0.000665
670	0.000591
682	0.000535
694	0.000492
706	0.000425
718	0.000439
730	0.000356
742	0.000316
754	0.000241
766	0.000227
778	0.000132
790	0.000115
802	5.2e-05
814	5e-06
826	4.8e-05
838	9.2e-05
850	8e-05
862	0.000131
874	0.000152
886	0.000145
898	0.000108
910	0.000127
922	0.000107
934	7.9e-05
946	0.00014
958	0.000156
970	0.000196
982	0.000258
994	0.000272
1006	0.000313
1018	0.000376
1030	0.00052
1042	0.000822
1054	0.001391
1066	0.00211
1078	0.002776
1090	0.003162
1102	0.003756
1114	0.004768
1126	0.005241
1138	0.004451
1150	0.003289
1162	0.002589
1174	0.002134
1186	0.00171
1198	0.001395
1210	0.001185
1222	0.000986
1234	0.000869
1246	0.000847
1258	0.000895
1270	0.000891
1282	0.000849
1294	0.000827
1306	0.000716
1318	0.000697
1330	0.000723
1342	0.000939
1354	0.001109
1366	0.001329
1378	0.001437
1390	0.001252
1402	0.000793
1414	0.00063
1426	0.000605
1438	0.000618
1450	0.000626
1462	0.000673
1474	0.00041
1486	0.000179
1498	7.6e-05
1510	9e-05
1522	2.5e-05
1534	2e-05
1546	4.8e-05
1558	9.9e-05
1570	8.8e-05
1582	5.1e-05
1594	3e-05
1606	6e-05
1618	4.7e-05
1630	7.6e-05
1642	0.000126
1654	0.000169
1666	0.000175
1678	0.000207
1690	0.000243
1702	0.000409
1714	0.000701
1726	0.001271
1738	0.002403
1750	0.004196
1762	0.006535
1774	0.009782
1786	0.00819
1798	0.004712
1810	0.002316
1822	0.001021
1834	0.000504
1846	0.000312
1858	0.000202
1870	0.000153
1882	0.000125
1894	0.000104
1906	9.2e-05
1918	7.5e-05
1930	7.2e-05
1942	5.6e-05
1954	6.6e-05
1966	4e-05
1978	4.9e-05
1990	5.6e-05
2002	5.4e-05
2014	3.7e-05
2026	2e-05
2038	2.4e-05
2050	3.3e-05
2062	9e-06
2074	1.4e-05
2086	1.9e-05
2098	1.1e-05
2110	2.8e-05
2122	5.3e-05
2134	4.4e-05
2146	5.2e-05
2158	4.1e-05
2170	3.2e-05
2182	3.2e-05
2194	3.4e-05
2206	4.9e-05
2218	5.3e-05
2230	6.4e-05
2242	6.3e-05
2254	4.5e-05
2266	3.8e-05
2278	5.2e-05
2290	3.2e-05
2302	4.9e-05
2314	6.7e-05
2326	7.9e-05
2338	8.5e-05
2350	6.3e-05
2362	0.000111
2374	0.0001
2386	5.1e-05
2398	5.3e-05
2410	1.7e-05
2422	1.9e-05
2434	1.8e-05
2446	3e-05
2458	2.5e-05
2470	1.5e-05
2482	4.1e-05
2494	3.2e-05
2506	3.5e-05
2518	2.7e-05
2530	5.8e-05
2542	1e-05
2554	3.1e-05
2566	3e-05
2578	3.1e-05
2590	2.8e-05
2602	3.2e-05
2614	2.1e-05
2626	6.2e-05
2638	3.5e-05
2650	3.9e-05
2662	3.8e-05
2674	7.1e-05
2686	6.8e-05
2698	7.9e-05
2710	6.6e-05
2722	7.6e-05
2734	9.6e-05
2746	7.3e-05
2758	0.000101
2770	8e-05
2782	0.000105
2794	0.000113
2806	0.000162
2818	0.00018
2830	0.000243
2842	0.000388
2854	0.000813
2866	0.001414
2878	0.001269
2890	0.000943
2902	0.001002
2914	0.001644
2926	0.002723
2938	0.003609
2950	0.003397
2962	0.002106
2974	0.001244
2986	0.000758
2998	0.000491
3010	0.00028
3022	0.000212
3034	0.000147
3046	0.000147
3058	0.000122
3070	0.000132
3082	0.000119
3094	0.00012
3106	7.9e-05
3118	0.000121
3130	0.000113
3142	0.000103
3154	0.000143
3166	0.000146
3178	0.000101
3190	0.000106
3202	0.00012
3214	0.000129
3226	9.9e-05
3238	0.000147
3250	7.5e-05
3262	0.000115
3274	0.000155
3286	0.000108
3298	0.000115
3310	7.6e-05
3322	9.9e-05
3334	8.2e-05
3346	7.3e-05
3358	9.8e-05
3370	6.7e-05
3382	6.6e-05
3394	8.3e-05
3406	0.000118
3418	6.7e-05
3430	8.4e-05
3442	7.3e-05
3454	3.9e-05
3466	3.5e-05
3478	6.9e-05
3490	8.4e-05
3502	9e-05
3514	0.000151
3526	0.000206
3538	0.000285
3550	0.000477
3562	0.001362
3574	0.003947
3586	0.001628
3598	0.000493
3610	0.00019
3622	0.000133
3634	9.7e-05
3646	7.5e-05
3658	4.7e-05
3670	2.4e-05
3682	2e-05
3694	3.3e-05
3706	5e-06
3718	5e-06
3730	3e-06
3742	5e-06
3754	5e-06
3766	3.3e-05
3778	5e-06
3790	5e-06
3802	5e-06
3814	3e-06
3826	5e-06
3838	2.9e-05
