Mass Spectrum: Phenol, 4-ethyl-
Formula: C8H10O
CAS: 123-07-9
Molecular weight: 122
Origin: NIST Mass Spectrometry Data Center, 1990.
m/z	RELATIVE ABUNDANCE
15	8
26	8
27	22
28	10
29	9
37	5
38	17
39	67
40	10
41	11
50	33
51	61
52	25
53	46
55	18
60	7
61	12
62	26
63	53
64	14
65	63
66	22
74	12
75	9
77	233
78	52
79	39
81	9
89	12
91	67
92	8
93	17
94	21
102	4
103	20
105	10
107	999
108	74
109	5
119	6
120	9
122	250
123	23
