Mass Spectrum: Propanal
Formula: C3H6O
CAS: 123-38-6
Molecular weight: 58
Origin: Japan AIST/NIMC Database - Spectrum MS-NW-778
m/z	RELATIVE ABUNDANCE
12	2
13	5
14	19
15	46
16	1
17	9
18	11
24	4
25	23
26	163
27	589
28	907
29	999
30	77
31	55
36	5
37	23
38	22
39	39
40	16
41	4
53	4
55	7
56	16
57	72
58	849
59	120
60	5
