Mass Spectrum: Tuaminoheptane
Formula: C7H17N
CAS: 123-82-0
Molecular weight: 115
Origin: Japan AIST/NIMC Database- Spectrum MS-NW-8600
m/z	RELATIVE ABUNDANCE
15	6
18	1
26	1
27	26
28	21
29	26
30	61
39	17
40	3
41	40
42	35
43	26
44	999
45	26
51	1
53	3
54	2
55	27
56	15
57	11
58	6
59	1
67	1
69	4
70	4
72	4
83	2
100	36
101	2
114	7
115	2
116	1
